@<TRIPOS>MOLECULE
A1
   27    29     1     0     0
SMALL
No Charge or Current Charge


@<TRIPOS>ATOM
      1 C1           7.0000     7.0750    17.8360 C.3        2 A1       -0.060033
      2 C2           4.6200     7.7880    18.0300 C.3        2 A1        0.150800
      3 C3           5.1260     5.4360    17.3950 C.3        2 A1       -0.060033
      4 C4           5.5620     7.3250    15.7700 C.3        2 A1       -0.060033
      5 C5           6.0290     7.9800    18.6280 C.3        2 A1       -0.086067
      6 C6           6.5490     5.6030    17.9710 C.3        2 A1       -0.071733
      7 C7           6.9870     7.4880    16.3460 C.3        2 A1       -0.071733
      8 C8           4.1480     6.3330    18.1870 C.3        2 A1       -0.086067
      9 C9           4.5950     8.2360    16.5550 C.3        2 A1       -0.086067
     10 C10          5.1130     5.8540    15.9070 C.3        2 A1       -0.071733
     11 O1           3.6560     8.5860    18.7650 O.3        2 A1       -0.593800
     12 H1           8.0250     7.1980    18.2550 H          2 A1        0.050367
     13 H2           4.8080     4.3730    17.4870 H          2 A1        0.050367
     14 H3           5.5560     7.6180    14.6960 H          2 A1        0.050367
     15 H4           6.3500     9.0340    18.5690 H          2 A1        0.049367
     16 H5           6.0340     7.7120    19.6990 H          2 A1        0.049367
     17 H6           7.2470     4.9290    17.4460 H          2 A1        0.041867
     18 H7           6.5690     5.2950    19.0320 H          2 A1        0.041867
     19 H8           7.6920     6.8740    15.7640 H          2 A1        0.041867
     20 H9           7.3280     8.5330    16.2350 H          2 A1        0.041867
     21 H10          3.1210     6.2050    17.8100 H          2 A1        0.049367
     22 H11          4.1220     6.0500    19.2550 H          2 A1        0.049367
     23 H12          3.5760     8.1740    16.1390 H          2 A1        0.049367
     24 H13          4.8910     9.2950    16.4650 H          2 A1        0.049367
     25 H14          4.1010     5.7240    15.4840 H          2 A1        0.041867
     26 H15          5.7800     5.1970    15.3210 H          2 A1        0.041867
     27 H16          4.0340     9.4700    18.9770 H          2 A1        0.397000
@<TRIPOS>BOND
     1     1     5 1   
     2     1     6 1   
     3     1     7 1   
     4     1    12 1   
     5     2     5 1   
     6     2     8 1   
     7     2     9 1   
     8     2    11 1   
     9     3     6 1   
    10     3     8 1   
    11     3    10 1   
    12     3    13 1   
    13     4     7 1   
    14     4     9 1   
    15     4    10 1   
    16     4    14 1   
    17     5    15 1   
    18     5    16 1   
    19     6    17 1   
    20     6    18 1   
    21     7    19 1   
    22     7    20 1   
    23     8    21 1   
    24     8    22 1   
    25     9    23 1   
    26     9    24 1   
    27    10    25 1   
    28    10    26 1   
    29    11    27 1   
@<TRIPOS>SUBSTRUCTURE
     1 A1          1 TEMP              0 ****  ****    0 ROOT
