@<TRIPOS>MOLECULE
A2
   29    31     1     0     0
SMALL
No Charge or Current Charge


@<TRIPOS>ATOM
      1 C1           6.2630     5.8810    17.7440 C.3        2 A2       -0.057700
      2 C2           3.8870     6.6370    17.5750 C.3        2 A2        0.137200
      3 C3           5.4000     6.9240    15.6130 C.3        2 A2       -0.057700
      4 C4           5.7070     8.3430    17.6780 C.3        2 A2       -0.057700
      5 C5           4.8130     5.5640    18.1840 C.3        2 A2       -0.091400
      6 C6           6.3400     5.8520    16.2030 C.3        2 A2       -0.084400
      7 C7           6.6560     7.2780    18.2690 C.3        2 A2       -0.084400
      8 C8           3.9450     6.6130    16.0370 C.3        2 A2       -0.091400
      9 C9           4.2540     8.0320    18.1150 C.3        2 A2       -0.091400
     10 C10          5.7970     8.3190    16.1370 C.3        2 A2       -0.084400
     11 N1           2.4380     6.2850    18.0010 N.4        2 A2       -0.846600
     12 H1           6.9410     5.1080    18.1730 H          2 A2        0.087700
     13 H2           5.4650     6.9090    14.5010 H          2 A2        0.087700
     14 H3           5.9940     9.3510    18.0550 H          2 A2        0.087700
     15 H4           4.7510     5.5540    19.2880 H          2 A2        0.063700
     16 H5           4.5360     4.5490    17.8420 H          2 A2        0.063700
     17 H6           7.3750     6.0280    15.8610 H          2 A2        0.067200
     18 H7           6.0640     4.8510    15.8220 H          2 A2        0.067200
     19 H8           7.6990     7.5160    17.9960 H          2 A2        0.067200
     20 H9           6.6200     7.3030    19.3730 H          2 A2        0.067200
     21 H10          3.2630     7.3600    15.5870 H          2 A2        0.063700
     22 H11          3.6290     5.6310    15.6300 H          2 A2        0.063700
     23 H12          3.5750     8.8200    17.7340 H          2 A2        0.063700
     24 H13          4.1750     8.0730    19.2180 H          2 A2        0.063700
     25 H14          5.1410     9.0940    15.7020 H          2 A2        0.067200
     26 H15          6.8220     8.5720    15.8100 H          2 A2        0.067200
     27 H16          2.3120     6.3790    19.0330 H          2 A2        0.453800
     28 H17          2.2160     5.2980    17.7500 H          2 A2        0.453800
     29 H18          1.7410     6.8920    17.5430 H          2 A2        0.453800
@<TRIPOS>BOND
     1     1     5 1   
     2     1     6 1   
     3     1     7 1   
     4     1    12 1   
     5     2     5 1   
     6     2     8 1   
     7     2     9 1   
     8     2    11 1   
     9     3     6 1   
    10     3     8 1   
    11     3    10 1   
    12     3    13 1   
    13     4     7 1   
    14     4     9 1   
    15     4    10 1   
    16     4    14 1   
    17     5    15 1   
    18     5    16 1   
    19     6    17 1   
    20     6    18 1   
    21     7    19 1   
    22     7    20 1   
    23     8    21 1   
    24     8    22 1   
    25     9    23 1   
    26     9    24 1   
    27    10    25 1   
    28    10    26 1   
    29    11    27 1   
    30    11    28 1   
    31    11    29 1   
@<TRIPOS>SUBSTRUCTURE
     1 A2          1 TEMP              0 ****  ****    0 ROOT
