3211_Nuv0285
  -OEChem-05082202433D
ITL:3211_Nuv0285
 63 66  0     0  0  0  0  0  0999 V2000
   11.5693    2.5798   -7.6469 H   0  0  0  0  0  0  0  0  0  0  0  0
   11.9902    3.5130   -7.2896 C   0  0  0  0  0  0  0  0  0  0  0  0
   12.6355    4.4001   -8.1171 C   0  0  0  0  0  0  0  0  0  0  0  0
   12.7995    4.0060   -9.8554 S   0  0  0  0  0  0  0  0  0  0  0  0
   12.9419    5.2770  -10.5818 O   0  0  0  0  0  0  0  0  0  0  0  0
   11.6893    3.1023  -10.1917 O   0  0  0  0  0  0  0  0  0  0  0  0
   14.3858    3.0509  -10.0196 C   0  0  0  0  0  0  0  0  0  0  0  0
   14.5718    2.6867  -11.5018 C   0  0  0  0  0  0  0  0  0  0  0  0
   15.4935    2.1255  -11.6614 H   0  0  0  0  0  0  0  0  0  0  0  0
   14.6222    3.5813  -12.1234 H   0  0  0  0  0  0  0  0  0  0  0  0
   13.7426    2.0798  -11.8677 H   0  0  0  0  0  0  0  0  0  0  0  0
   15.5628    3.9260   -9.5645 C   0  0  0  0  0  0  0  0  0  0  0  0
   15.6833    4.8021  -10.2016 H   0  0  0  0  0  0  0  0  0  0  0  0
   15.4147    4.2725   -8.5448 H   0  0  0  0  0  0  0  0  0  0  0  0
   16.5036    3.3762   -9.5943 H   0  0  0  0  0  0  0  0  0  0  0  0
   14.3131    1.7639   -9.1762 C   0  0  0  0  0  0  0  0  0  0  0  0
   13.5265    1.0962   -9.5288 H   0  0  0  0  0  0  0  0  0  0  0  0
   15.2517    1.2105   -9.2148 H   0  0  0  0  0  0  0  0  0  0  0  0
   14.1144    1.9811   -8.1281 H   0  0  0  0  0  0  0  0  0  0  0  0
   13.1761    5.6040   -7.6092 C   0  0  0  0  0  0  0  0  0  0  0  0
   13.6957    6.2924   -8.2704 H   0  0  0  0  0  0  0  0  0  0  0  0
   13.0370    5.9071   -6.2749 C   0  0  0  0  0  0  0  0  0  0  0  0
   13.4440    6.8277   -5.8693 H   0  0  0  0  0  0  0  0  0  0  0  0
   12.3643    5.0065   -5.4049 C   0  0  0  0  0  0  0  0  0  0  0  0
   11.8574    3.8033   -5.9626 N   0  0  0  0  0  0  0  0  0  0  0  0
   11.2659    3.1210   -4.9054 C   0  0  0  0  0  0  0  0  0  0  0  0
   11.4107    3.8982   -3.7896 C   0  0  0  0  0  0  0  0  0  0  0  0
   11.0844    3.7102   -2.7765 H   0  0  0  0  0  0  0  0  0  0  0  0
   12.0927    5.0669   -4.1007 N   0  0  0  0  0  0  0  0  0  0  0  0
   10.6314    1.8558   -4.9160 N   0  0  0  0  0  0  0  0  0  0  0  0
    9.6928    1.3621   -4.0256 C   0  0  0  0  0  0  0  0  0  0  0  0
    9.3261    1.9360   -3.1872 H   0  0  0  0  0  0  0  0  0  0  0  0
    9.4211    0.0832   -4.4199 C   0  0  0  0  0  0  0  0  0  0  0  0
   10.2282   -0.1335   -5.5687 C   0  0  0  0  0  0  0  0  0  0  0  0
   10.3257   -1.0213   -6.1781 H   0  0  0  0  0  0  0  0  0  0  0  0
   10.9463    0.9377   -5.8615 N   0  0  0  0  0  0  0  0  0  0  0  0
    8.5530   -0.9173   -3.7748 C   0  0  0  0  0  0  0  0  0  0  0  0
    9.0867   -2.2056   -3.5812 C   0  0  0  0  0  0  0  0  0  0  0  0
   10.0986   -2.4167   -3.9008 H   0  0  0  0  0  0  0  0  0  0  0  0
    8.3579   -3.2142   -2.9231 C   0  0  0  0  0  0  0  0  0  0  0  0
    7.0277   -2.9680   -2.5297 C   0  0  0  0  0  0  0  0  0  0  0  0
    6.4469   -3.7336   -2.0330 H   0  0  0  0  0  0  0  0  0  0  0  0
    6.4742   -1.6910   -2.7318 C   0  0  0  0  0  0  0  0  0  0  0  0
    5.4673   -1.4945   -2.3947 H   0  0  0  0  0  0  0  0  0  0  0  0
    7.2338   -0.6558   -3.3215 C   0  0  0  0  0  0  0  0  0  0  0  0
    6.6019    0.7188   -3.4680 C   0  0  0  0  0  0  0  0  0  0  0  0
    5.5183    0.6663   -3.3613 H   0  0  0  0  0  0  0  0  0  0  0  0
    6.9782    1.3925   -2.6980 H   0  0  0  0  0  0  0  0  0  0  0  0
    6.8192    1.1500   -4.4460 H   0  0  0  0  0  0  0  0  0  0  0  0
    9.0547   -4.4894   -2.5696 C   0  0  0  0  0  0  0  0  0  0  0  0
   10.2079   -4.4416   -2.1390 O   0  0  0  0  0  0  0  0  0  0  0  0
    8.3758   -5.6298   -2.7684 N   0  0  0  0  0  0  0  0  0  0  0  0
    7.4179   -5.5918   -3.0984 H   0  0  0  0  0  0  0  0  0  0  0  0
    8.9578   -6.9488   -2.5229 C   0  0  0  0  0  0  0  0  0  0  0  0
    8.8715   -7.5447   -3.4335 H   0  0  0  0  0  0  0  0  0  0  0  0
   10.0310   -6.8741   -2.3280 H   0  0  0  0  0  0  0  0  0  0  0  0
    8.2705   -7.6605   -1.3447 C   0  0  0  0  0  0  0  0  0  0  0  0
    7.6459   -6.9640   -0.7867 H   0  0  0  0  0  0  0  0  0  0  0  0
    7.5978   -8.4260   -1.7289 H   0  0  0  0  0  0  0  0  0  0  0  0
    9.2721   -8.3214   -0.3922 C   0  0  0  0  0  0  0  0  0  0  0  0
    8.7591   -8.8188    0.4277 H   0  0  0  0  0  0  0  0  0  0  0  0
    9.8825   -9.0602   -0.9039 H   0  0  0  0  0  0  0  0  0  0  0  0
    9.9529   -7.5887    0.0341 H   0  0  0  0  0  0  0  0  0  0  0  0
  1  2  1  0  0  0  0
  2  3  2  0  0  0  0
  2 25  1  0  0  0  0
  3  4  1  0  0  0  0
  3 20  1  0  0  0  0
  4  5  2  0  0  0  0
  4  6  2  0  0  0  0
  4  7  1  0  0  0  0
  7  8  1  0  0  0  0
  7 12  1  0  0  0  0
  7 16  1  0  0  0  0
  8  9  1  0  0  0  0
  8 10  1  0  0  0  0
  8 11  1  0  0  0  0
 12 13  1  0  0  0  0
 12 14  1  0  0  0  0
 12 15  1  0  0  0  0
 16 17  1  0  0  0  0
 16 18  1  0  0  0  0
 16 19  1  0  0  0  0
 20 21  1  0  0  0  0
 20 22  2  0  0  0  0
 22 23  1  0  0  0  0
 22 24  1  0  0  0  0
 24 25  1  0  0  0  0
 24 29  2  0  0  0  0
 25 26  1  0  0  0  0
 26 27  2  0  0  0  0
 26 30  1  0  0  0  0
 27 28  1  0  0  0  0
 27 29  1  0  0  0  0
 30 31  1  0  0  0  0
 30 36  1  0  0  0  0
 31 32  1  0  0  0  0
 31 33  2  0  0  0  0
 33 34  1  0  0  0  0
 33 37  1  0  0  0  0
 34 35  1  0  0  0  0
 34 36  2  0  0  0  0
 37 38  2  0  0  0  0
 37 45  1  0  0  0  0
 38 39  1  0  0  0  0
 38 40  1  0  0  0  0
 40 41  2  0  0  0  0
 40 50  1  0  0  0  0
 41 42  1  0  0  0  0
 41 43  1  0  0  0  0
 43 44  1  0  0  0  0
 43 45  2  0  0  0  0
 45 46  1  0  0  0  0
 46 47  1  0  0  0  0
 46 48  1  0  0  0  0
 46 49  1  0  0  0  0
 50 51  2  0  0  0  0
 50 52  1  0  0  0  0
 52 53  1  0  0  0  0
 52 54  1  0  0  0  0
 54 55  1  0  0  0  0
 54 56  1  0  0  0  0
 54 57  1  0  0  0  0
 57 58  1  0  0  0  0
 57 59  1  0  0  0  0
 57 60  1  0  0  0  0
 60 61  1  0  0  0  0
 60 62  1  0  0  0  0
 60 63  1  0  0  0  0
M  END
> <EXP_BINDING_AFFINITY_IN_KCAL_PER_MOL>
-10.21

> <EXP_BINDING_AFFINITY_IN_KCAL_PER_MOL_STDERR>
0.1

$$$$
3212_Nu0286c1
  -OEChem-05082202433D
ITL:3212_Nuv0286_conf1
 66 69  0     0  0  0  0  0  0999 V2000
   11.5644    2.5700   -7.6610 H   0  0  0  0  0  0  0  0  0  0  0  0
   11.9670    3.5056   -7.3016 C   0  0  0  0  0  0  0  0  0  0  0  0
   12.6073    4.4013   -8.1329 C   0  0  0  0  0  0  0  0  0  0  0  0
   12.8025    4.0007   -9.8687 S   0  0  0  0  0  0  0  0  0  0  0  0
   12.9394    5.2726  -10.5953 O   0  0  0  0  0  0  0  0  0  0  0  0
   11.7050    3.0884  -10.2203 O   0  0  0  0  0  0  0  0  0  0  0  0
   14.3970    3.0574  -10.0135 C   0  0  0  0  0  0  0  0  0  0  0  0
   14.6129    2.7129  -11.4959 C   0  0  0  0  0  0  0  0  0  0  0  0
   15.5470    2.1681  -11.6384 H   0  0  0  0  0  0  0  0  0  0  0  0
   14.6695    3.6184  -12.1000 H   0  0  0  0  0  0  0  0  0  0  0  0
   13.8017    2.0981  -11.8877 H   0  0  0  0  0  0  0  0  0  0  0  0
   15.5579    3.9317   -9.5160 C   0  0  0  0  0  0  0  0  0  0  0  0
   15.6351    4.8656  -10.0680 H   0  0  0  0  0  0  0  0  0  0  0  0
   15.4129    4.1804   -8.4667 H   0  0  0  0  0  0  0  0  0  0  0  0
   16.5130    3.4181   -9.5940 H   0  0  0  0  0  0  0  0  0  0  0  0
   14.3172    1.7618   -9.1863 C   0  0  0  0  0  0  0  0  0  0  0  0
   13.4918    1.1290   -9.5158 H   0  0  0  0  0  0  0  0  0  0  0  0
   15.2322    1.1734   -9.2742 H   0  0  0  0  0  0  0  0  0  0  0  0
   14.1724    1.9814   -8.1294 H   0  0  0  0  0  0  0  0  0  0  0  0
   13.1406    5.6053   -7.6229 C   0  0  0  0  0  0  0  0  0  0  0  0
   13.6598    6.2994   -8.2838 H   0  0  0  0  0  0  0  0  0  0  0  0
   12.9974    5.9111   -6.2859 C   0  0  0  0  0  0  0  0  0  0  0  0
   13.3889    6.8360   -5.8753 H   0  0  0  0  0  0  0  0  0  0  0  0
   12.3303    5.0035   -5.4186 C   0  0  0  0  0  0  0  0  0  0  0  0
   11.8341    3.8016   -5.9774 N   0  0  0  0  0  0  0  0  0  0  0  0
   11.2493    3.1154   -4.9181 C   0  0  0  0  0  0  0  0  0  0  0  0
   11.3865    3.8914   -3.8028 C   0  0  0  0  0  0  0  0  0  0  0  0
   11.0586    3.7071   -2.7906 H   0  0  0  0  0  0  0  0  0  0  0  0
   12.0645    5.0600   -4.1126 N   0  0  0  0  0  0  0  0  0  0  0  0
   10.6189    1.8516   -4.9277 N   0  0  0  0  0  0  0  0  0  0  0  0
    9.6910    1.3603   -4.0297 C   0  0  0  0  0  0  0  0  0  0  0  0
    9.3396    1.9350   -3.1909 H   0  0  0  0  0  0  0  0  0  0  0  0
    9.3987    0.0875   -4.4370 C   0  0  0  0  0  0  0  0  0  0  0  0
   10.2025   -0.1327   -5.5837 C   0  0  0  0  0  0  0  0  0  0  0  0
   10.2973   -1.0211   -6.1961 H   0  0  0  0  0  0  0  0  0  0  0  0
   10.9269    0.9357   -5.8770 N   0  0  0  0  0  0  0  0  0  0  0  0
    8.5375   -0.9106   -3.7815 C   0  0  0  0  0  0  0  0  0  0  0  0
    9.0739   -2.1965   -3.5823 C   0  0  0  0  0  0  0  0  0  0  0  0
   10.0894   -2.4004   -3.8915 H   0  0  0  0  0  0  0  0  0  0  0  0
    8.3416   -3.2152   -2.9353 C   0  0  0  0  0  0  0  0  0  0  0  0
    7.0138   -2.9593   -2.5425 C   0  0  0  0  0  0  0  0  0  0  0  0
    6.4300   -3.7294   -2.0553 H   0  0  0  0  0  0  0  0  0  0  0  0
    6.4578   -1.6877   -2.7461 C   0  0  0  0  0  0  0  0  0  0  0  0
    5.4517   -1.4917   -2.4143 H   0  0  0  0  0  0  0  0  0  0  0  0
    7.2193   -0.6515   -3.3364 C   0  0  0  0  0  0  0  0  0  0  0  0
    6.5951    0.7292   -3.4581 C   0  0  0  0  0  0  0  0  0  0  0  0
    5.5816    0.7557   -3.0449 H   0  0  0  0  0  0  0  0  0  0  0  0
    7.1782    1.4661   -2.9012 H   0  0  0  0  0  0  0  0  0  0  0  0
    6.5567    1.0508   -4.5020 H   0  0  0  0  0  0  0  0  0  0  0  0
    9.0476   -4.4829   -2.5656 C   0  0  0  0  0  0  0  0  0  0  0  0
   10.2093   -4.4262   -2.1396 O   0  0  0  0  0  0  0  0  0  0  0  0
    8.3763   -5.6319   -2.7130 N   0  0  0  0  0  0  0  0  0  0  0  0
    7.4255   -5.6176   -3.0687 H   0  0  0  0  0  0  0  0  0  0  0  0
    9.0009   -6.9368   -2.5137 C   0  0  0  0  0  0  0  0  0  0  0  0
    9.3420   -7.2855   -3.4853 H   0  0  0  0  0  0  0  0  0  0  0  0
    9.9148   -6.8241   -1.9158 H   0  0  0  0  0  0  0  0  0  0  0  0
    8.1030   -7.9697   -1.8378 C   0  0  0  0  0  0  0  0  0  0  0  0
    7.1990   -7.4639   -1.4977 H   0  0  0  0  0  0  0  0  0  0  0  0
    7.7354   -9.0681   -2.8590 C   0  0  0  0  0  0  0  0  0  0  0  0
    8.5456   -9.6121   -3.2907 H   0  0  0  0  0  0  0  0  0  0  0  0
    7.0644   -9.8067   -2.4072 H   0  0  0  0  0  0  0  0  0  0  0  0
    7.2144   -8.6280   -3.7164 H   0  0  0  0  0  0  0  0  0  0  0  0
    8.7281   -8.5830   -0.5760 C   0  0  0  0  0  0  0  0  0  0  0  0
    9.6425   -9.1358   -0.7970 H   0  0  0  0  0  0  0  0  0  0  0  0
    8.9660   -7.8116    0.1551 H   0  0  0  0  0  0  0  0  0  0  0  0
    8.0257   -9.2649   -0.0954 H   0  0  0  0  0  0  0  0  0  0  0  0
  1  2  1  0  0  0  0
  2  3  2  0  0  0  0
  2 25  1  0  0  0  0
  3  4  1  0  0  0  0
  3 20  1  0  0  0  0
  4  5  2  0  0  0  0
  4  6  2  0  0  0  0
  4  7  1  0  0  0  0
  7  8  1  0  0  0  0
  7 12  1  0  0  0  0
  7 16  1  0  0  0  0
  8  9  1  0  0  0  0
  8 10  1  0  0  0  0
  8 11  1  0  0  0  0
 12 13  1  0  0  0  0
 12 14  1  0  0  0  0
 12 15  1  0  0  0  0
 16 17  1  0  0  0  0
 16 18  1  0  0  0  0
 16 19  1  0  0  0  0
 20 21  1  0  0  0  0
 20 22  2  0  0  0  0
 22 23  1  0  0  0  0
 22 24  1  0  0  0  0
 24 25  1  0  0  0  0
 24 29  2  0  0  0  0
 25 26  1  0  0  0  0
 26 27  2  0  0  0  0
 26 30  1  0  0  0  0
 27 28  1  0  0  0  0
 27 29  1  0  0  0  0
 30 31  1  0  0  0  0
 30 36  1  0  0  0  0
 31 32  1  0  0  0  0
 31 33  2  0  0  0  0
 33 34  1  0  0  0  0
 33 37  1  0  0  0  0
 34 35  1  0  0  0  0
 34 36  2  0  0  0  0
 37 38  2  0  0  0  0
 37 45  1  0  0  0  0
 38 39  1  0  0  0  0
 38 40  1  0  0  0  0
 40 41  2  0  0  0  0
 40 50  1  0  0  0  0
 41 42  1  0  0  0  0
 41 43  1  0  0  0  0
 43 44  1  0  0  0  0
 43 45  2  0  0  0  0
 45 46  1  0  0  0  0
 46 47  1  0  0  0  0
 46 48  1  0  0  0  0
 46 49  1  0  0  0  0
 50 51  2  0  0  0  0
 50 52  1  0  0  0  0
 52 53  1  0  0  0  0
 52 54  1  0  0  0  0
 54 55  1  0  0  0  0
 54 56  1  0  0  0  0
 54 57  1  0  0  0  0
 57 58  1  0  0  0  0
 57 59  1  0  0  0  0
 57 63  1  0  0  0  0
 59 60  1  0  0  0  0
 59 61  1  0  0  0  0
 59 62  1  0  0  0  0
 63 64  1  0  0  0  0
 63 65  1  0  0  0  0
 63 66  1  0  0  0  0
M  END
> <EXP_BINDING_AFFINITY_IN_KCAL_PER_MOL>
-8.52

> <EXP_BINDING_AFFINITY_IN_KCAL_PER_MOL_STDERR>
0.1

$$$$
417_Nuv0096
  -OEChem-05082202433D
ITL:417_Nuv0096
 61 65  0     0  0  0  0  0  0999 V2000
   13.6990    6.2921   -8.2702 H   0  0  0  0  0  0  0  0  0  0  0  0
   13.1806    5.6043   -7.6091 C   0  0  0  0  0  0  0  0  0  0  0  0
   12.6392    4.4002   -8.1159 C   0  0  0  0  0  0  0  0  0  0  0  0
   12.7986    4.0075   -9.8536 S   0  0  0  0  0  0  0  0  0  0  0  0
   11.6864    3.1047  -10.1857 O   0  0  0  0  0  0  0  0  0  0  0  0
   12.9407    5.2778  -10.5807 O   0  0  0  0  0  0  0  0  0  0  0  0
   14.3852    3.0520  -10.0188 C   0  0  0  0  0  0  0  0  0  0  0  0
   14.3096    1.7663   -9.1744 C   0  0  0  0  0  0  0  0  0  0  0  0
   15.2273    1.1833   -9.2531 H   0  0  0  0  0  0  0  0  0  0  0  0
   13.4877    1.1248   -9.4935 H   0  0  0  0  0  0  0  0  0  0  0  0
   14.1616    1.9893   -8.1188 H   0  0  0  0  0  0  0  0  0  0  0  0
   15.5635    3.9257   -9.5654 C   0  0  0  0  0  0  0  0  0  0  0  0
   15.6902    4.7948  -10.2095 H   0  0  0  0  0  0  0  0  0  0  0  0
   15.4141    4.2838   -8.5497 H   0  0  0  0  0  0  0  0  0  0  0  0
   16.5006    3.3702   -9.5879 H   0  0  0  0  0  0  0  0  0  0  0  0
   14.5710    2.6857  -11.5016 C   0  0  0  0  0  0  0  0  0  0  0  0
   14.6887    3.5778  -12.1178 H   0  0  0  0  0  0  0  0  0  0  0  0
   15.4588    2.0684  -11.6484 H   0  0  0  0  0  0  0  0  0  0  0  0
   13.7122    2.1325  -11.8846 H   0  0  0  0  0  0  0  0  0  0  0  0
   11.9946    3.5119   -7.2877 C   0  0  0  0  0  0  0  0  0  0  0  0
   11.5731    2.5793   -7.6458 H   0  0  0  0  0  0  0  0  0  0  0  0
   11.8627    3.8031   -5.9626 N   0  0  0  0  0  0  0  0  0  0  0  0
   12.3680    5.0076   -5.4038 C   0  0  0  0  0  0  0  0  0  0  0  0
   13.0410    5.9081   -6.2754 C   0  0  0  0  0  0  0  0  0  0  0  0
   13.4463    6.8287   -5.8695 H   0  0  0  0  0  0  0  0  0  0  0  0
   12.0944    5.0694   -4.1017 N   0  0  0  0  0  0  0  0  0  0  0  0
   11.4139    3.8997   -3.7901 C   0  0  0  0  0  0  0  0  0  0  0  0
   11.0864    3.7137   -2.7767 H   0  0  0  0  0  0  0  0  0  0  0  0
   11.2687    3.1221   -4.9040 C   0  0  0  0  0  0  0  0  0  0  0  0
   10.6366    1.8551   -4.9136 N   0  0  0  0  0  0  0  0  0  0  0  0
    9.6934    1.3624   -4.0253 C   0  0  0  0  0  0  0  0  0  0  0  0
    9.3249    1.9363   -3.1875 H   0  0  0  0  0  0  0  0  0  0  0  0
    9.4247    0.0814   -4.4167 C   0  0  0  0  0  0  0  0  0  0  0  0
   10.2296   -0.1337   -5.5677 C   0  0  0  0  0  0  0  0  0  0  0  0
   10.3247   -1.0208   -6.1789 H   0  0  0  0  0  0  0  0  0  0  0  0
   10.9492    0.9376   -5.8600 N   0  0  0  0  0  0  0  0  0  0  0  0
    8.5567   -0.9198   -3.7687 C   0  0  0  0  0  0  0  0  0  0  0  0
    9.0897   -2.2106   -3.5745 C   0  0  0  0  0  0  0  0  0  0  0  0
   10.0983   -2.4206   -3.9048 H   0  0  0  0  0  0  0  0  0  0  0  0
    8.3673   -3.2182   -2.9099 C   0  0  0  0  0  0  0  0  0  0  0  0
    7.0355   -2.9705   -2.5207 C   0  0  0  0  0  0  0  0  0  0  0  0
    6.4485   -3.7373   -2.0330 H   0  0  0  0  0  0  0  0  0  0  0  0
    6.4801   -1.6923   -2.7237 C   0  0  0  0  0  0  0  0  0  0  0  0
    5.4701   -1.4968   -2.3943 H   0  0  0  0  0  0  0  0  0  0  0  0
    7.2386   -0.6561   -3.3137 C   0  0  0  0  0  0  0  0  0  0  0  0
    6.6049    0.7171   -3.4652 C   0  0  0  0  0  0  0  0  0  0  0  0
    5.5209    0.6622   -3.3642 H   0  0  0  0  0  0  0  0  0  0  0  0
    6.9763    1.3923   -2.6947 H   0  0  0  0  0  0  0  0  0  0  0  0
    6.8250    1.1470   -4.4433 H   0  0  0  0  0  0  0  0  0  0  0  0
    9.0646   -4.4924   -2.5535 C   0  0  0  0  0  0  0  0  0  0  0  0
   10.2171   -4.4583   -2.1213 O   0  0  0  0  0  0  0  0  0  0  0  0
    8.3820   -5.6308   -2.7286 N   0  0  0  0  0  0  0  0  0  0  0  0
    7.4304   -5.5857   -3.0690 H   0  0  0  0  0  0  0  0  0  0  0  0
    8.9497   -6.9268   -2.5232 C   0  0  0  0  0  0  0  0  0  0  0  0
   10.0370   -6.9866   -2.4613 H   0  0  0  0  0  0  0  0  0  0  0  0
    8.1981   -7.9257   -1.6749 C   0  0  0  0  0  0  0  0  0  0  0  0
    8.7847   -8.6086   -1.0624 H   0  0  0  0  0  0  0  0  0  0  0  0
    7.2588   -7.6050   -1.2296 H   0  0  0  0  0  0  0  0  0  0  0  0
    8.2571   -8.1048   -3.1668 C   0  0  0  0  0  0  0  0  0  0  0  0
    7.3506   -7.9132   -3.7344 H   0  0  0  0  0  0  0  0  0  0  0  0
    8.8797   -8.9091   -3.5567 H   0  0  0  0  0  0  0  0  0  0  0  0
  1  2  1  0  0  0  0
  2  3  1  0  0  0  0
  2 24  2  0  0  0  0
  3  4  1  0  0  0  0
  3 20  2  0  0  0  0
  4  5  2  0  0  0  0
  4  6  2  0  0  0  0
  4  7  1  0  0  0  0
  7  8  1  0  0  0  0
  7 12  1  0  0  0  0
  7 16  1  0  0  0  0
  8  9  1  0  0  0  0
  8 10  1  0  0  0  0
  8 11  1  0  0  0  0
 12 13  1  0  0  0  0
 12 14  1  0  0  0  0
 12 15  1  0  0  0  0
 16 17  1  0  0  0  0
 16 18  1  0  0  0  0
 16 19  1  0  0  0  0
 20 21  1  0  0  0  0
 20 22  1  0  0  0  0
 22 23  1  0  0  0  0
 22 29  1  0  0  0  0
 23 24  1  0  0  0  0
 23 26  2  0  0  0  0
 24 25  1  0  0  0  0
 26 27  1  0  0  0  0
 27 28  1  0  0  0  0
 27 29  2  0  0  0  0
 29 30  1  0  0  0  0
 30 31  1  0  0  0  0
 30 36  1  0  0  0  0
 31 32  1  0  0  0  0
 31 33  2  0  0  0  0
 33 34  1  0  0  0  0
 33 37  1  0  0  0  0
 34 35  1  0  0  0  0
 34 36  2  0  0  0  0
 37 38  2  0  0  0  0
 37 45  1  0  0  0  0
 38 39  1  0  0  0  0
 38 40  1  0  0  0  0
 40 41  2  0  0  0  0
 40 50  1  0  0  0  0
 41 42  1  0  0  0  0
 41 43  1  0  0  0  0
 43 44  1  0  0  0  0
 43 45  2  0  0  0  0
 45 46  1  0  0  0  0
 46 47  1  0  0  0  0
 46 48  1  0  0  0  0
 46 49  1  0  0  0  0
 50 51  2  0  0  0  0
 50 52  1  0  0  0  0
 52 53  1  0  0  0  0
 52 54  1  0  0  0  0
 54 55  1  0  0  0  0
 54 56  1  0  0  0  0
 54 59  1  0  0  0  0
 56 57  1  0  0  0  0
 56 58  1  0  0  0  0
 56 59  1  0  0  0  0
 59 60  1  0  0  0  0
 59 61  1  0  0  0  0
M  END
> <EXP_BINDING_AFFINITY_IN_KCAL_PER_MOL>
-12.65

> <EXP_BINDING_AFFINITY_IN_KCAL_PER_MOL_STDERR>
0.1

$$$$
420_Nuv0097
  -OEChem-05082202433D
ITL:420_Nuv0097
 60 64  0     0  0  0  0  0  0999 V2000
    5.4592    0.6532   -3.5243 H   0  0  0  0  0  0  0  0  0  0  0  0
    6.5446    0.7004   -3.5958 C   0  0  0  0  0  0  0  0  0  0  0  0
    6.9071    1.3431   -2.7940 H   0  0  0  0  0  0  0  0  0  0  0  0
    6.7748    1.1619   -4.5599 H   0  0  0  0  0  0  0  0  0  0  0  0
    7.1601   -0.6881   -3.4764 C   0  0  0  0  0  0  0  0  0  0  0  0
    8.4799   -0.9567   -3.9157 C   0  0  0  0  0  0  0  0  0  0  0  0
    8.9884   -2.2646   -3.7802 C   0  0  0  0  0  0  0  0  0  0  0  0
   10.0058   -2.4636   -4.0929 H   0  0  0  0  0  0  0  0  0  0  0  0
    8.2245   -3.2954   -3.1882 C   0  0  0  0  0  0  0  0  0  0  0  0
    6.9017   -3.0297   -2.7779 C   0  0  0  0  0  0  0  0  0  0  0  0
    6.2917   -3.8002   -2.3206 H   0  0  0  0  0  0  0  0  0  0  0  0
    6.3828   -1.7303   -2.9243 C   0  0  0  0  0  0  0  0  0  0  0  0
    5.3746   -1.5325   -2.5972 H   0  0  0  0  0  0  0  0  0  0  0  0
    8.8798   -4.6086   -2.8889 C   0  0  0  0  0  0  0  0  0  0  0  0
   10.0399   -4.6162   -2.4737 O   0  0  0  0  0  0  0  0  0  0  0  0
    8.1582   -5.7209   -3.1172 N   0  0  0  0  0  0  0  0  0  0  0  0
    7.2101   -5.6272   -3.4713 H   0  0  0  0  0  0  0  0  0  0  0  0
    8.6537   -7.0649   -3.0197 C   0  0  0  0  0  0  0  0  0  0  0  0
    8.8618   -7.5457   -3.9744 H   0  0  0  0  0  0  0  0  0  0  0  0
    9.4796   -7.5422   -1.8339 C   0  0  0  0  0  0  0  0  0  0  0  0
   10.2092   -8.3338   -1.9787 H   0  0  0  0  0  0  0  0  0  0  0  0
    9.7371   -6.8203   -1.0616 H   0  0  0  0  0  0  0  0  0  0  0  0
    8.0391   -7.9605   -1.9686 C   0  0  0  0  0  0  0  0  0  0  0  0
    7.3370   -7.5199   -1.2615 H   0  0  0  0  0  0  0  0  0  0  0  0
    7.8385   -8.9959   -2.2491 H   0  0  0  0  0  0  0  0  0  0  0  0
    9.3471    0.0844   -4.4531 C   0  0  0  0  0  0  0  0  0  0  0  0
    9.6522    1.3320   -3.9901 C   0  0  0  0  0  0  0  0  0  0  0  0
    9.2777    1.8030   -3.0939 H   0  0  0  0  0  0  0  0  0  0  0  0
   10.5933    1.8317   -4.9299 C   0  0  0  0  0  0  0  0  0  0  0  0
   10.8256    0.9483   -5.8879 N   0  0  0  0  0  0  0  0  0  0  0  0
   10.0365   -0.1711   -5.5939 O   0  0  0  0  0  0  0  0  0  0  0  0
   11.2676    3.1280   -4.8801 C   0  0  0  0  0  0  0  0  0  0  0  0
   11.4377    3.9350   -3.7901 C   0  0  0  0  0  0  0  0  0  0  0  0
   11.1146    3.7668   -2.7715 H   0  0  0  0  0  0  0  0  0  0  0  0
   12.1299    5.0879   -4.1212 N   0  0  0  0  0  0  0  0  0  0  0  0
   12.3851    5.0015   -5.4234 C   0  0  0  0  0  0  0  0  0  0  0  0
   13.0513    5.8925   -6.3055 C   0  0  0  0  0  0  0  0  0  0  0  0
   13.4601    6.8175   -5.9095 H   0  0  0  0  0  0  0  0  0  0  0  0
   13.1768    5.5784   -7.6365 C   0  0  0  0  0  0  0  0  0  0  0  0
   13.6881    6.2621   -8.3066 H   0  0  0  0  0  0  0  0  0  0  0  0
   12.6376    4.3682   -8.1270 C   0  0  0  0  0  0  0  0  0  0  0  0
   11.9939    3.4900   -7.2870 C   0  0  0  0  0  0  0  0  0  0  0  0
   11.5703    2.5585   -7.6444 H   0  0  0  0  0  0  0  0  0  0  0  0
   11.8646    3.7890   -5.9572 N   0  0  0  0  0  0  0  0  0  0  0  0
   12.8084    3.9750   -9.8642 S   0  0  0  0  0  0  0  0  0  0  0  0
   12.9358    5.2448  -10.5911 O   0  0  0  0  0  0  0  0  0  0  0  0
   11.7023    3.0652  -10.1996 O   0  0  0  0  0  0  0  0  0  0  0  0
   14.4026    3.0336  -10.0258 C   0  0  0  0  0  0  0  0  0  0  0  0
   14.6134    2.7078  -11.5127 C   0  0  0  0  0  0  0  0  0  0  0  0
   15.5410    2.1575  -11.6709 H   0  0  0  0  0  0  0  0  0  0  0  0
   14.6717    3.6172  -12.1114 H   0  0  0  0  0  0  0  0  0  0  0  0
   13.7953    2.1037  -11.9055 H   0  0  0  0  0  0  0  0  0  0  0  0
   14.3156    1.7330   -9.2109 C   0  0  0  0  0  0  0  0  0  0  0  0
   14.1862    1.9456   -8.1503 H   0  0  0  0  0  0  0  0  0  0  0  0
   13.4772    1.1134   -9.5316 H   0  0  0  0  0  0  0  0  0  0  0  0
   15.2238    1.1394   -9.3151 H   0  0  0  0  0  0  0  0  0  0  0  0
   15.5673    3.9008   -9.5213 C   0  0  0  0  0  0  0  0  0  0  0  0
   15.4712    4.0762   -8.4511 H   0  0  0  0  0  0  0  0  0  0  0  0
   16.5286    3.4111   -9.6762 H   0  0  0  0  0  0  0  0  0  0  0  0
   15.6087    4.8659  -10.0253 H   0  0  0  0  0  0  0  0  0  0  0  0
  1  2  1  0  0  0  0
  2  3  1  0  0  0  0
  2  4  1  0  0  0  0
  2  5  1  0  0  0  0
  5  6  1  0  0  0  0
  5 12  2  0  0  0  0
  6  7  2  0  0  0  0
  6 26  1  0  0  0  0
  7  8  1  0  0  0  0
  7  9  1  0  0  0  0
  9 10  2  0  0  0  0
  9 14  1  0  0  0  0
 10 11  1  0  0  0  0
 10 12  1  0  0  0  0
 12 13  1  0  0  0  0
 14 15  2  0  0  0  0
 14 16  1  0  0  0  0
 16 17  1  0  0  0  0
 16 18  1  0  0  0  0
 18 19  1  0  0  0  0
 18 20  1  0  0  0  0
 18 23  1  0  0  0  0
 20 21  1  0  0  0  0
 20 22  1  0  0  0  0
 20 23  1  0  0  0  0
 23 24  1  0  0  0  0
 23 25  1  0  0  0  0
 26 27  2  0  0  0  0
 26 31  1  0  0  0  0
 27 28  1  0  0  0  0
 27 29  1  0  0  0  0
 29 30  2  0  0  0  0
 29 32  1  0  0  0  0
 30 31  1  0  0  0  0
 32 33  2  0  0  0  0
 32 44  1  0  0  0  0
 33 34  1  0  0  0  0
 33 35  1  0  0  0  0
 35 36  2  0  0  0  0
 36 37  1  0  0  0  0
 36 44  1  0  0  0  0
 37 38  1  0  0  0  0
 37 39  2  0  0  0  0
 39 40  1  0  0  0  0
 39 41  1  0  0  0  0
 41 42  2  0  0  0  0
 41 45  1  0  0  0  0
 42 43  1  0  0  0  0
 42 44  1  0  0  0  0
 45 46  2  0  0  0  0
 45 47  2  0  0  0  0
 45 48  1  0  0  0  0
 48 49  1  0  0  0  0
 48 53  1  0  0  0  0
 48 57  1  0  0  0  0
 49 50  1  0  0  0  0
 49 51  1  0  0  0  0
 49 52  1  0  0  0  0
 53 54  1  0  0  0  0
 53 55  1  0  0  0  0
 53 56  1  0  0  0  0
 57 58  1  0  0  0  0
 57 59  1  0  0  0  0
 57 60  1  0  0  0  0
M  END
> <EXP_BINDING_AFFINITY_IN_KCAL_PER_MOL>
-12.25

> <EXP_BINDING_AFFINITY_IN_KCAL_PER_MOL_STDERR>
0.1

$$$$
3210_Nuv0282
  -OEChem-05082202433D
ITL:3210_Nuv0282
 63 66  0     0  0  0  0  0  0999 V2000
   11.5664    2.5669   -7.6511 H   0  0  0  0  0  0  0  0  0  0  0  0
   11.9812    3.5019   -7.2925 C   0  0  0  0  0  0  0  0  0  0  0  0
   12.6322    4.3887   -8.1205 C   0  0  0  0  0  0  0  0  0  0  0  0
   12.8162    3.9947   -9.8583 S   0  0  0  0  0  0  0  0  0  0  0  0
   12.9623    5.2654  -10.5826 O   0  0  0  0  0  0  0  0  0  0  0  0
   11.7145    3.0863  -10.2100 O   0  0  0  0  0  0  0  0  0  0  0  0
   14.4038    3.0419  -10.0106 C   0  0  0  0  0  0  0  0  0  0  0  0
   14.6126    2.6932  -11.4940 C   0  0  0  0  0  0  0  0  0  0  0  0
   15.5355    2.1331  -11.6444 H   0  0  0  0  0  0  0  0  0  0  0  0
   14.6744    3.5955  -12.1039 H   0  0  0  0  0  0  0  0  0  0  0  0
   13.7881    2.0925  -11.8788 H   0  0  0  0  0  0  0  0  0  0  0  0
   15.5730    3.9098   -9.5256 C   0  0  0  0  0  0  0  0  0  0  0  0
   15.6736    4.8197  -10.1181 H   0  0  0  0  0  0  0  0  0  0  0  0
   15.4282    4.1989   -8.4870 H   0  0  0  0  0  0  0  0  0  0  0  0
   16.5214    3.3784   -9.5904 H   0  0  0  0  0  0  0  0  0  0  0  0
   14.3170    1.7456   -9.1816 C   0  0  0  0  0  0  0  0  0  0  0  0
   13.5177    1.0962   -9.5381 H   0  0  0  0  0  0  0  0  0  0  0  0
   15.2465    1.1801   -9.2316 H   0  0  0  0  0  0  0  0  0  0  0  0
   14.1251    1.9593   -8.1307 H   0  0  0  0  0  0  0  0  0  0  0  0
   13.1642    5.5949   -7.6068 C   0  0  0  0  0  0  0  0  0  0  0  0
   13.6845    6.2840   -8.2664 H   0  0  0  0  0  0  0  0  0  0  0  0
   13.0172    5.8992   -6.2749 C   0  0  0  0  0  0  0  0  0  0  0  0
   13.4204    6.8209   -5.8671 H   0  0  0  0  0  0  0  0  0  0  0  0
   12.3428    4.9975   -5.4060 C   0  0  0  0  0  0  0  0  0  0  0  0
   11.8419    3.7931   -5.9688 N   0  0  0  0  0  0  0  0  0  0  0  0
   11.2494    3.1113   -4.9083 C   0  0  0  0  0  0  0  0  0  0  0  0
   11.3881    3.8880   -3.7949 C   0  0  0  0  0  0  0  0  0  0  0  0
   11.0592    3.6972   -2.7816 H   0  0  0  0  0  0  0  0  0  0  0  0
   12.0693    5.0576   -4.1037 N   0  0  0  0  0  0  0  0  0  0  0  0
   10.6173    1.8469   -4.9222 N   0  0  0  0  0  0  0  0  0  0  0  0
    9.6842    1.3526   -4.0280 C   0  0  0  0  0  0  0  0  0  0  0  0
    9.3172    1.9245   -3.1908 H   0  0  0  0  0  0  0  0  0  0  0  0
    9.4078    0.0765   -4.4299 C   0  0  0  0  0  0  0  0  0  0  0  0
   10.2248   -0.1439   -5.5691 C   0  0  0  0  0  0  0  0  0  0  0  0
   10.3281   -1.0338   -6.1742 H   0  0  0  0  0  0  0  0  0  0  0  0
   10.9374    0.9286   -5.8639 N   0  0  0  0  0  0  0  0  0  0  0  0
    8.5374   -0.9242   -3.7887 C   0  0  0  0  0  0  0  0  0  0  0  0
    9.0705   -2.2122   -3.5838 C   0  0  0  0  0  0  0  0  0  0  0  0
   10.0886   -2.4137   -3.8902 H   0  0  0  0  0  0  0  0  0  0  0  0
    8.3383   -3.2252   -2.9406 C   0  0  0  0  0  0  0  0  0  0  0  0
    9.0353   -4.5089   -2.5743 C   0  0  0  0  0  0  0  0  0  0  0  0
   10.1928   -4.4639   -2.1524 O   0  0  0  0  0  0  0  0  0  0  0  0
    8.3532   -5.6461   -2.7430 N   0  0  0  0  0  0  0  0  0  0  0  0
    7.4014   -5.5989   -3.0937 H   0  0  0  0  0  0  0  0  0  0  0  0
    8.9251   -6.9719   -2.5409 C   0  0  0  0  0  0  0  0  0  0  0  0
   10.0025   -6.9317   -2.4088 H   0  0  0  0  0  0  0  0  0  0  0  0
    8.3035   -7.7054   -1.3307 C   0  0  0  0  0  0  0  0  0  0  0  0
    8.7089   -8.7123   -1.2289 H   0  0  0  0  0  0  0  0  0  0  0  0
    8.5001   -7.2222   -0.3903 H   0  0  0  0  0  0  0  0  0  0  0  0
    7.2239   -7.7622   -1.4150 H   0  0  0  0  0  0  0  0  0  0  0  0
    8.5939   -7.8829   -3.7496 C   0  0  0  0  0  0  0  0  0  0  0  0
    9.0564   -8.8615   -3.6308 H   0  0  0  0  0  0  0  0  0  0  0  0
    7.5196   -8.0188   -3.8737 H   0  0  0  0  0  0  0  0  0  0  0  0
    8.9282   -7.4867   -4.7126 H   0  0  0  0  0  0  0  0  0  0  0  0
    7.0099   -2.9694   -2.5444 C   0  0  0  0  0  0  0  0  0  0  0  0
    6.4280   -3.7283   -2.0391 H   0  0  0  0  0  0  0  0  0  0  0  0
    6.4643   -1.6907   -2.7401 C   0  0  0  0  0  0  0  0  0  0  0  0
    5.4468   -1.4944   -2.4161 H   0  0  0  0  0  0  0  0  0  0  0  0
    7.2146   -0.6587   -3.3456 C   0  0  0  0  0  0  0  0  0  0  0  0
    6.5875    0.7172   -3.4869 C   0  0  0  0  0  0  0  0  0  0  0  0
    5.5055    0.6722   -3.3617 H   0  0  0  0  0  0  0  0  0  0  0  0
    6.9779    1.3911   -2.7244 H   0  0  0  0  0  0  0  0  0  0  0  0
    6.7921    1.1458   -4.4680 H   0  0  0  0  0  0  0  0  0  0  0  0
  1  2  1  0  0  0  0
  2  3  2  0  0  0  0
  2 25  1  0  0  0  0
  3  4  1  0  0  0  0
  3 20  1  0  0  0  0
  4  5  2  0  0  0  0
  4  6  2  0  0  0  0
  4  7  1  0  0  0  0
  7  8  1  0  0  0  0
  7 12  1  0  0  0  0
  7 16  1  0  0  0  0
  8  9  1  0  0  0  0
  8 10  1  0  0  0  0
  8 11  1  0  0  0  0
 12 13  1  0  0  0  0
 12 14  1  0  0  0  0
 12 15  1  0  0  0  0
 16 17  1  0  0  0  0
 16 18  1  0  0  0  0
 16 19  1  0  0  0  0
 20 21  1  0  0  0  0
 20 22  2  0  0  0  0
 22 23  1  0  0  0  0
 22 24  1  0  0  0  0
 24 25  1  0  0  0  0
 24 29  2  0  0  0  0
 25 26  1  0  0  0  0
 26 27  2  0  0  0  0
 26 30  1  0  0  0  0
 27 28  1  0  0  0  0
 27 29  1  0  0  0  0
 30 31  1  0  0  0  0
 30 36  1  0  0  0  0
 31 32  1  0  0  0  0
 31 33  2  0  0  0  0
 33 34  1  0  0  0  0
 33 37  1  0  0  0  0
 34 35  1  0  0  0  0
 34 36  2  0  0  0  0
 37 38  2  0  0  0  0
 37 59  1  0  0  0  0
 38 39  1  0  0  0  0
 38 40  1  0  0  0  0
 40 41  1  0  0  0  0
 40 55  2  0  0  0  0
 41 42  2  0  0  0  0
 41 43  1  0  0  0  0
 43 44  1  0  0  0  0
 43 45  1  0  0  0  0
 45 46  1  0  0  0  0
 45 47  1  0  0  0  0
 45 51  1  0  0  0  0
 47 48  1  0  0  0  0
 47 49  1  0  0  0  0
 47 50  1  0  0  0  0
 51 52  1  0  0  0  0
 51 53  1  0  0  0  0
 51 54  1  0  0  0  0
 55 56  1  0  0  0  0
 55 57  1  0  0  0  0
 57 58  1  0  0  0  0
 57 59  2  0  0  0  0
 59 60  1  0  0  0  0
 60 61  1  0  0  0  0
 60 62  1  0  0  0  0
 60 63  1  0  0  0  0
M  END
> <EXP_BINDING_AFFINITY_IN_KCAL_PER_MOL>
-10.30

> <EXP_BINDING_AFFINITY_IN_KCAL_PER_MOL_STDERR>
0.1

$$$$
3208_Nuv0278
  -OEChem-05082202433D
ITL:3208_Nuv0278
 64 68  0     0  0  0  0  0  0999 V2000
   11.5574    2.5679   -7.6627 H   0  0  0  0  0  0  0  0  0  0  0  0
   11.9798    3.5001   -7.3088 C   0  0  0  0  0  0  0  0  0  0  0  0
   12.6234    4.3894   -8.1267 C   0  0  0  0  0  0  0  0  0  0  0  0
   12.8142    3.9954   -9.8687 S   0  0  0  0  0  0  0  0  0  0  0  0
   12.9519    5.2686  -10.5915 O   0  0  0  0  0  0  0  0  0  0  0  0
   11.7104    3.0870  -10.2162 O   0  0  0  0  0  0  0  0  0  0  0  0
   14.4031    3.0534  -10.0183 C   0  0  0  0  0  0  0  0  0  0  0  0
   15.5666    3.9305   -9.5272 C   0  0  0  0  0  0  0  0  0  0  0  0
   16.5282    3.4198   -9.6336 H   0  0  0  0  0  0  0  0  0  0  0  0
   15.4430    4.1719   -8.4758 H   0  0  0  0  0  0  0  0  0  0  0  0
   15.6314    4.8614  -10.0877 H   0  0  0  0  0  0  0  0  0  0  0  0
   14.6178    2.7013  -11.5003 C   0  0  0  0  0  0  0  0  0  0  0  0
   13.8156    2.0672  -11.8765 H   0  0  0  0  0  0  0  0  0  0  0  0
   14.6444    3.6003  -12.1171 H   0  0  0  0  0  0  0  0  0  0  0  0
   15.5605    2.1739  -11.6515 H   0  0  0  0  0  0  0  0  0  0  0  0
   14.3200    1.7561   -9.1842 C   0  0  0  0  0  0  0  0  0  0  0  0
   13.5027    1.1230   -9.5143 H   0  0  0  0  0  0  0  0  0  0  0  0
   15.2418    1.1740   -9.2650 H   0  0  0  0  0  0  0  0  0  0  0  0
   14.1680    1.9671   -8.1289 H   0  0  0  0  0  0  0  0  0  0  0  0
   13.1605    5.5946   -7.6173 C   0  0  0  0  0  0  0  0  0  0  0  0
   13.6802    6.2821   -8.2764 H   0  0  0  0  0  0  0  0  0  0  0  0
   13.0176    5.8963   -6.2853 C   0  0  0  0  0  0  0  0  0  0  0  0
   13.4250    6.8142   -5.8763 H   0  0  0  0  0  0  0  0  0  0  0  0
   12.3492    4.9943   -5.4169 C   0  0  0  0  0  0  0  0  0  0  0  0
   11.8351    3.7957   -5.9805 N   0  0  0  0  0  0  0  0  0  0  0  0
   11.2478    3.1037   -4.9195 C   0  0  0  0  0  0  0  0  0  0  0  0
   11.3901    3.8850   -3.8011 C   0  0  0  0  0  0  0  0  0  0  0  0
   11.0658    3.6906   -2.7916 H   0  0  0  0  0  0  0  0  0  0  0  0
   12.0746    5.0523   -4.1124 N   0  0  0  0  0  0  0  0  0  0  0  0
   10.6096    1.8450   -4.9380 N   0  0  0  0  0  0  0  0  0  0  0  0
    9.6858    1.3461   -4.0341 C   0  0  0  0  0  0  0  0  0  0  0  0
    9.3330    1.9267   -3.1958 H   0  0  0  0  0  0  0  0  0  0  0  0
    9.4043    0.0731   -4.4407 C   0  0  0  0  0  0  0  0  0  0  0  0
   10.2120   -0.1417   -5.5827 C   0  0  0  0  0  0  0  0  0  0  0  0
   10.3053   -1.0333   -6.1879 H   0  0  0  0  0  0  0  0  0  0  0  0
   10.9192    0.9291   -5.8812 N   0  0  0  0  0  0  0  0  0  0  0  0
    8.5382   -0.9249   -3.7934 C   0  0  0  0  0  0  0  0  0  0  0  0
    9.0782   -2.2165   -3.5883 C   0  0  0  0  0  0  0  0  0  0  0  0
   10.0931   -2.4230   -3.9123 H   0  0  0  0  0  0  0  0  0  0  0  0
    8.3468   -3.2384   -2.9468 C   0  0  0  0  0  0  0  0  0  0  0  0
    7.0196   -2.9816   -2.5386 C   0  0  0  0  0  0  0  0  0  0  0  0
    6.4473   -3.7431   -2.0410 H   0  0  0  0  0  0  0  0  0  0  0  0
    6.4623   -1.7061   -2.7305 C   0  0  0  0  0  0  0  0  0  0  0  0
    5.4611   -1.5106   -2.3890 H   0  0  0  0  0  0  0  0  0  0  0  0
    7.2206   -0.6735   -3.3341 C   0  0  0  0  0  0  0  0  0  0  0  0
    6.5971    0.7015   -3.4874 C   0  0  0  0  0  0  0  0  0  0  0  0
    5.5742    0.7331   -3.1044 H   0  0  0  0  0  0  0  0  0  0  0  0
    7.1701    1.4577   -2.9334 H   0  0  0  0  0  0  0  0  0  0  0  0
    6.5818    0.9986   -4.5409 H   0  0  0  0  0  0  0  0  0  0  0  0
    9.0424   -4.5081   -2.5882 C   0  0  0  0  0  0  0  0  0  0  0  0
   10.1926   -4.4608   -2.1361 O   0  0  0  0  0  0  0  0  0  0  0  0
    8.3817   -5.6603   -2.7818 N   0  0  0  0  0  0  0  0  0  0  0  0
    7.4487   -5.6571   -3.1553 H   0  0  0  0  0  0  0  0  0  0  0  0
    8.9939   -6.9548   -2.5055 C   0  0  0  0  0  0  0  0  0  0  0  0
    9.9835   -6.9328   -2.0494 H   0  0  0  0  0  0  0  0  0  0  0  0
    8.0533   -7.8998   -1.7553 C   0  0  0  0  0  0  0  0  0  0  0  0
    8.5655   -8.5575   -1.0603 H   0  0  0  0  0  0  0  0  0  0  0  0
    7.2032   -7.4133   -1.2718 H   0  0  0  0  0  0  0  0  0  0  0  0
    7.7375   -8.5918   -3.0829 C   0  0  0  0  0  0  0  0  0  0  0  0
    7.7534   -9.6819   -3.0864 H   0  0  0  0  0  0  0  0  0  0  0  0
    6.9373   -8.1899   -3.6639 H   0  0  0  0  0  0  0  0  0  0  0  0
    8.9385   -7.9156   -3.6958 C   0  0  0  0  0  0  0  0  0  0  0  0
    8.7253   -7.5005   -4.6840 H   0  0  0  0  0  0  0  0  0  0  0  0
    9.6881   -8.6957   -3.7146 H   0  0  0  0  0  0  0  0  0  0  0  0
  1  2  1  0  0  0  0
  2  3  2  0  0  0  0
  2 25  1  0  0  0  0
  3  4  1  0  0  0  0
  3 20  1  0  0  0  0
  4  5  2  0  0  0  0
  4  6  2  0  0  0  0
  4  7  1  0  0  0  0
  7  8  1  0  0  0  0
  7 12  1  0  0  0  0
  7 16  1  0  0  0  0
  8  9  1  0  0  0  0
  8 10  1  0  0  0  0
  8 11  1  0  0  0  0
 12 13  1  0  0  0  0
 12 14  1  0  0  0  0
 12 15  1  0  0  0  0
 16 17  1  0  0  0  0
 16 18  1  0  0  0  0
 16 19  1  0  0  0  0
 20 21  1  0  0  0  0
 20 22  2  0  0  0  0
 22 23  1  0  0  0  0
 22 24  1  0  0  0  0
 24 25  1  0  0  0  0
 24 29  2  0  0  0  0
 25 26  1  0  0  0  0
 26 27  2  0  0  0  0
 26 30  1  0  0  0  0
 27 28  1  0  0  0  0
 27 29  1  0  0  0  0
 30 31  1  0  0  0  0
 30 36  1  0  0  0  0
 31 32  1  0  0  0  0
 31 33  2  0  0  0  0
 33 34  1  0  0  0  0
 33 37  1  0  0  0  0
 34 35  1  0  0  0  0
 34 36  2  0  0  0  0
 37 38  2  0  0  0  0
 37 45  1  0  0  0  0
 38 39  1  0  0  0  0
 38 40  1  0  0  0  0
 40 41  2  0  0  0  0
 40 50  1  0  0  0  0
 41 42  1  0  0  0  0
 41 43  1  0  0  0  0
 43 44  1  0  0  0  0
 43 45  2  0  0  0  0
 45 46  1  0  0  0  0
 46 47  1  0  0  0  0
 46 48  1  0  0  0  0
 46 49  1  0  0  0  0
 50 51  2  0  0  0  0
 50 52  1  0  0  0  0
 52 53  1  0  0  0  0
 52 54  1  0  0  0  0
 54 55  1  0  0  0  0
 54 56  1  0  0  0  0
 54 62  1  0  0  0  0
 56 57  1  0  0  0  0
 56 58  1  0  0  0  0
 56 59  1  0  0  0  0
 59 60  1  0  0  0  0
 59 61  1  0  0  0  0
 59 62  1  0  0  0  0
 62 63  1  0  0  0  0
 62 64  1  0  0  0  0
M  END
> <EXP_BINDING_AFFINITY_IN_KCAL_PER_MOL>
-11.00

> <EXP_BINDING_AFFINITY_IN_KCAL_PER_MOL_STDERR>
0.1

$$$$
3207_Nuv0279
  -OEChem-05082202433D
ITL:3207_Nuv0279
 57 60  0     0  0  0  0  0  0999 V2000
   11.5668    2.5821   -7.6540 H   0  0  0  0  0  0  0  0  0  0  0  0
   11.9872    3.5148   -7.2956 C   0  0  0  0  0  0  0  0  0  0  0  0
   12.6338    4.4024   -8.1228 C   0  0  0  0  0  0  0  0  0  0  0  0
   12.8039    4.0094   -9.8606 S   0  0  0  0  0  0  0  0  0  0  0  0
   11.6949    3.1064  -10.2020 O   0  0  0  0  0  0  0  0  0  0  0  0
   12.9490    5.2800  -10.5866 O   0  0  0  0  0  0  0  0  0  0  0  0
   14.3897    3.0528  -10.0191 C   0  0  0  0  0  0  0  0  0  0  0  0
   14.3097    1.7662   -9.1764 C   0  0  0  0  0  0  0  0  0  0  0  0
   15.2256    1.1813   -9.2587 H   0  0  0  0  0  0  0  0  0  0  0  0
   13.4844    1.1286   -9.4961 H   0  0  0  0  0  0  0  0  0  0  0  0
   14.1646    1.9879   -8.1199 H   0  0  0  0  0  0  0  0  0  0  0  0
   15.5644    3.9255   -9.5554 C   0  0  0  0  0  0  0  0  0  0  0  0
   15.6785    4.8122  -10.1791 H   0  0  0  0  0  0  0  0  0  0  0  0
   15.4171    4.2555   -8.5298 H   0  0  0  0  0  0  0  0  0  0  0  0
   16.5079    3.3805   -9.5928 H   0  0  0  0  0  0  0  0  0  0  0  0
   14.5834    2.6887  -11.5007 C   0  0  0  0  0  0  0  0  0  0  0  0
   14.6903    3.5821  -12.1166 H   0  0  0  0  0  0  0  0  0  0  0  0
   15.4791    2.0829  -11.6464 H   0  0  0  0  0  0  0  0  0  0  0  0
   13.7322    2.1249  -11.8845 H   0  0  0  0  0  0  0  0  0  0  0  0
   13.1716    5.6071   -7.6132 C   0  0  0  0  0  0  0  0  0  0  0  0
   13.6919    6.2957   -8.2736 H   0  0  0  0  0  0  0  0  0  0  0  0
   13.0316    5.9095   -6.2792 C   0  0  0  0  0  0  0  0  0  0  0  0
   13.4375    6.8306   -5.8732 H   0  0  0  0  0  0  0  0  0  0  0  0
   12.3581    5.0083   -5.4095 C   0  0  0  0  0  0  0  0  0  0  0  0
   11.8532    3.8048   -5.9696 N   0  0  0  0  0  0  0  0  0  0  0  0
   11.2625    3.1224   -4.9107 C   0  0  0  0  0  0  0  0  0  0  0  0
   11.4056    3.8997   -3.7956 C   0  0  0  0  0  0  0  0  0  0  0  0
   11.0797    3.7097   -2.7822 H   0  0  0  0  0  0  0  0  0  0  0  0
   12.0871    5.0691   -4.1066 N   0  0  0  0  0  0  0  0  0  0  0  0
   10.6287    1.8573   -4.9226 N   0  0  0  0  0  0  0  0  0  0  0  0
    9.6972    1.3591   -4.0275 C   0  0  0  0  0  0  0  0  0  0  0  0
    9.3312    1.9310   -3.1882 H   0  0  0  0  0  0  0  0  0  0  0  0
    9.4208    0.0831   -4.4275 C   0  0  0  0  0  0  0  0  0  0  0  0
   10.2272   -0.1324   -5.5761 C   0  0  0  0  0  0  0  0  0  0  0  0
   10.3227   -1.0185   -6.1880 H   0  0  0  0  0  0  0  0  0  0  0  0
   10.9418    0.9407   -5.8694 N   0  0  0  0  0  0  0  0  0  0  0  0
    8.5540   -0.9183   -3.7823 C   0  0  0  0  0  0  0  0  0  0  0  0
    9.0882   -2.2083   -3.5839 C   0  0  0  0  0  0  0  0  0  0  0  0
   10.1006   -2.4168   -3.9031 H   0  0  0  0  0  0  0  0  0  0  0  0
    8.3560   -3.2198   -2.9338 C   0  0  0  0  0  0  0  0  0  0  0  0
    9.0461   -4.5031   -2.5787 C   0  0  0  0  0  0  0  0  0  0  0  0
   10.2017   -4.4770   -2.1492 O   0  0  0  0  0  0  0  0  0  0  0  0
    8.3541   -5.6352   -2.7619 N   0  0  0  0  0  0  0  0  0  0  0  0
    7.4037   -5.5880   -3.1066 H   0  0  0  0  0  0  0  0  0  0  0  0
    8.9131   -6.9493   -2.5057 C   0  0  0  0  0  0  0  0  0  0  0  0
    8.1847   -7.7249   -2.7454 H   0  0  0  0  0  0  0  0  0  0  0  0
    9.7938   -7.1129   -3.1263 H   0  0  0  0  0  0  0  0  0  0  0  0
    9.2088   -7.0593   -1.4594 H   0  0  0  0  0  0  0  0  0  0  0  0
    7.0267   -2.9668   -2.5395 C   0  0  0  0  0  0  0  0  0  0  0  0
    6.4424   -3.7307   -2.0451 H   0  0  0  0  0  0  0  0  0  0  0  0
    6.4733   -1.6886   -2.7427 C   0  0  0  0  0  0  0  0  0  0  0  0
    5.4646   -1.4928   -2.4090 H   0  0  0  0  0  0  0  0  0  0  0  0
    7.2333   -0.6555   -3.3346 C   0  0  0  0  0  0  0  0  0  0  0  0
    6.6026    0.7199   -3.4799 C   0  0  0  0  0  0  0  0  0  0  0  0
    5.5196    0.6696   -3.3659 H   0  0  0  0  0  0  0  0  0  0  0  0
    6.9848    1.3950   -2.7140 H   0  0  0  0  0  0  0  0  0  0  0  0
    6.8144    1.1477   -4.4600 H   0  0  0  0  0  0  0  0  0  0  0  0
  1  2  1  0  0  0  0
  2  3  2  0  0  0  0
  2 25  1  0  0  0  0
  3  4  1  0  0  0  0
  3 20  1  0  0  0  0
  4  5  2  0  0  0  0
  4  6  2  0  0  0  0
  4  7  1  0  0  0  0
  7  8  1  0  0  0  0
  7 12  1  0  0  0  0
  7 16  1  0  0  0  0
  8  9  1  0  0  0  0
  8 10  1  0  0  0  0
  8 11  1  0  0  0  0
 12 13  1  0  0  0  0
 12 14  1  0  0  0  0
 12 15  1  0  0  0  0
 16 17  1  0  0  0  0
 16 18  1  0  0  0  0
 16 19  1  0  0  0  0
 20 21  1  0  0  0  0
 20 22  2  0  0  0  0
 22 23  1  0  0  0  0
 22 24  1  0  0  0  0
 24 25  1  0  0  0  0
 24 29  2  0  0  0  0
 25 26  1  0  0  0  0
 26 27  2  0  0  0  0
 26 30  1  0  0  0  0
 27 28  1  0  0  0  0
 27 29  1  0  0  0  0
 30 31  1  0  0  0  0
 30 36  1  0  0  0  0
 31 32  1  0  0  0  0
 31 33  2  0  0  0  0
 33 34  1  0  0  0  0
 33 37  1  0  0  0  0
 34 35  1  0  0  0  0
 34 36  2  0  0  0  0
 37 38  2  0  0  0  0
 37 53  1  0  0  0  0
 38 39  1  0  0  0  0
 38 40  1  0  0  0  0
 40 41  1  0  0  0  0
 40 49  2  0  0  0  0
 41 42  2  0  0  0  0
 41 43  1  0  0  0  0
 43 44  1  0  0  0  0
 43 45  1  0  0  0  0
 45 46  1  0  0  0  0
 45 47  1  0  0  0  0
 45 48  1  0  0  0  0
 49 50  1  0  0  0  0
 49 51  1  0  0  0  0
 51 52  1  0  0  0  0
 51 53  2  0  0  0  0
 53 54  1  0  0  0  0
 54 55  1  0  0  0  0
 54 56  1  0  0  0  0
 54 57  1  0  0  0  0
M  END
> <EXP_BINDING_AFFINITY_IN_KCAL_PER_MOL>
-11.21

> <EXP_BINDING_AFFINITY_IN_KCAL_PER_MOL_STDERR>
0.1

$$$$
3209_Nuv0280
  -OEChem-05082202433D
ITL:3209_Nuv0280
 60 63  0     0  0  0  0  0  0999 V2000
   11.5671    2.5812   -7.6470 H   0  0  0  0  0  0  0  0  0  0  0  0
   11.9879    3.5142   -7.2893 C   0  0  0  0  0  0  0  0  0  0  0  0
   12.6349    4.4005   -8.1173 C   0  0  0  0  0  0  0  0  0  0  0  0
   12.7989    4.0058   -9.8560 S   0  0  0  0  0  0  0  0  0  0  0  0
   12.9417    5.2772  -10.5819 O   0  0  0  0  0  0  0  0  0  0  0  0
   11.6898    3.1014  -10.1935 O   0  0  0  0  0  0  0  0  0  0  0  0
   14.3859    3.0513  -10.0202 C   0  0  0  0  0  0  0  0  0  0  0  0
   14.5716    2.6865  -11.5022 C   0  0  0  0  0  0  0  0  0  0  0  0
   15.4933    2.1251  -11.6610 H   0  0  0  0  0  0  0  0  0  0  0  0
   14.6236    3.5812  -12.1234 H   0  0  0  0  0  0  0  0  0  0  0  0
   13.7418    2.0804  -11.8683 H   0  0  0  0  0  0  0  0  0  0  0  0
   15.5627    3.9265   -9.5657 C   0  0  0  0  0  0  0  0  0  0  0  0
   15.6762    4.8083  -10.1961 H   0  0  0  0  0  0  0  0  0  0  0  0
   15.4180    4.2625   -8.5425 H   0  0  0  0  0  0  0  0  0  0  0  0
   16.5056    3.3812   -9.6025 H   0  0  0  0  0  0  0  0  0  0  0  0
   14.3135    1.7643   -9.1767 C   0  0  0  0  0  0  0  0  0  0  0  0
   13.5291    1.0949   -9.5310 H   0  0  0  0  0  0  0  0  0  0  0  0
   15.2540    1.2135   -9.2107 H   0  0  0  0  0  0  0  0  0  0  0  0
   14.1122    1.9819   -8.1294 H   0  0  0  0  0  0  0  0  0  0  0  0
   13.1759    5.6044   -7.6096 C   0  0  0  0  0  0  0  0  0  0  0  0
   13.6952    6.2927   -8.2708 H   0  0  0  0  0  0  0  0  0  0  0  0
   13.0356    5.9081   -6.2754 C   0  0  0  0  0  0  0  0  0  0  0  0
   13.4432    6.8283   -5.8700 H   0  0  0  0  0  0  0  0  0  0  0  0
   12.3638    5.0067   -5.4034 C   0  0  0  0  0  0  0  0  0  0  0  0
   11.8570    3.8038   -5.9632 N   0  0  0  0  0  0  0  0  0  0  0  0
   11.2643    3.1214   -4.9053 C   0  0  0  0  0  0  0  0  0  0  0  0
   11.4082    3.8979   -3.7900 C   0  0  0  0  0  0  0  0  0  0  0  0
   11.0817    3.7116   -2.7763 H   0  0  0  0  0  0  0  0  0  0  0  0
   12.0920    5.0660   -4.1001 N   0  0  0  0  0  0  0  0  0  0  0  0
   10.6310    1.8560   -4.9168 N   0  0  0  0  0  0  0  0  0  0  0  0
    9.6918    1.3632   -4.0256 C   0  0  0  0  0  0  0  0  0  0  0  0
    9.3293    1.9358   -3.1843 H   0  0  0  0  0  0  0  0  0  0  0  0
    9.4223    0.0835   -4.4185 C   0  0  0  0  0  0  0  0  0  0  0  0
   10.2269   -0.1327   -5.5693 C   0  0  0  0  0  0  0  0  0  0  0  0
   10.3262   -1.0213   -6.1774 H   0  0  0  0  0  0  0  0  0  0  0  0
   10.9460    0.9380   -5.8620 N   0  0  0  0  0  0  0  0  0  0  0  0
    8.5545   -0.9167   -3.7730 C   0  0  0  0  0  0  0  0  0  0  0  0
    9.0889   -2.2052   -3.5770 C   0  0  0  0  0  0  0  0  0  0  0  0
   10.1030   -2.4150   -3.8918 H   0  0  0  0  0  0  0  0  0  0  0  0
    8.3584   -3.2109   -2.9212 C   0  0  0  0  0  0  0  0  0  0  0  0
    9.0549   -4.4872   -2.5684 C   0  0  0  0  0  0  0  0  0  0  0  0
   10.2107   -4.4506   -2.1436 O   0  0  0  0  0  0  0  0  0  0  0  0
    8.3699   -5.6267   -2.7544 N   0  0  0  0  0  0  0  0  0  0  0  0
    7.4078   -5.5846   -3.0820 H   0  0  0  0  0  0  0  0  0  0  0  0
    8.9383   -6.9488   -2.5146 C   0  0  0  0  0  0  0  0  0  0  0  0
   10.0335   -6.9250   -2.5192 H   0  0  0  0  0  0  0  0  0  0  0  0
    8.6379   -7.2958   -1.5209 H   0  0  0  0  0  0  0  0  0  0  0  0
    8.4700   -7.9378   -3.5871 C   0  0  0  0  0  0  0  0  0  0  0  0
    8.8844   -8.9261   -3.4065 H   0  0  0  0  0  0  0  0  0  0  0  0
    7.3856   -8.0289   -3.5929 H   0  0  0  0  0  0  0  0  0  0  0  0
    8.7789   -7.6317   -4.5857 H   0  0  0  0  0  0  0  0  0  0  0  0
    7.0247   -2.9684   -2.5363 C   0  0  0  0  0  0  0  0  0  0  0  0
    6.4444   -3.7305   -2.0333 H   0  0  0  0  0  0  0  0  0  0  0  0
    6.4715   -1.6900   -2.7380 C   0  0  0  0  0  0  0  0  0  0  0  0
    5.4666   -1.4928   -2.3957 H   0  0  0  0  0  0  0  0  0  0  0  0
    7.2343   -0.6547   -3.3228 C   0  0  0  0  0  0  0  0  0  0  0  0
    6.6021    0.7198   -3.4690 C   0  0  0  0  0  0  0  0  0  0  0  0
    5.5184    0.6673   -3.3605 H   0  0  0  0  0  0  0  0  0  0  0  0
    6.9785    1.3935   -2.6994 H   0  0  0  0  0  0  0  0  0  0  0  0
    6.8193    1.1509   -4.4470 H   0  0  0  0  0  0  0  0  0  0  0  0
  1  2  1  0  0  0  0
  2  3  2  0  0  0  0
  2 25  1  0  0  0  0
  3  4  1  0  0  0  0
  3 20  1  0  0  0  0
  4  5  2  0  0  0  0
  4  6  2  0  0  0  0
  4  7  1  0  0  0  0
  7  8  1  0  0  0  0
  7 12  1  0  0  0  0
  7 16  1  0  0  0  0
  8  9  1  0  0  0  0
  8 10  1  0  0  0  0
  8 11  1  0  0  0  0
 12 13  1  0  0  0  0
 12 14  1  0  0  0  0
 12 15  1  0  0  0  0
 16 17  1  0  0  0  0
 16 18  1  0  0  0  0
 16 19  1  0  0  0  0
 20 21  1  0  0  0  0
 20 22  2  0  0  0  0
 22 23  1  0  0  0  0
 22 24  1  0  0  0  0
 24 25  1  0  0  0  0
 24 29  2  0  0  0  0
 25 26  1  0  0  0  0
 26 27  2  0  0  0  0
 26 30  1  0  0  0  0
 27 28  1  0  0  0  0
 27 29  1  0  0  0  0
 30 31  1  0  0  0  0
 30 36  1  0  0  0  0
 31 32  1  0  0  0  0
 31 33  2  0  0  0  0
 33 34  1  0  0  0  0
 33 37  1  0  0  0  0
 34 35  1  0  0  0  0
 34 36  2  0  0  0  0
 37 38  2  0  0  0  0
 37 56  1  0  0  0  0
 38 39  1  0  0  0  0
 38 40  1  0  0  0  0
 40 41  1  0  0  0  0
 40 52  2  0  0  0  0
 41 42  2  0  0  0  0
 41 43  1  0  0  0  0
 43 44  1  0  0  0  0
 43 45  1  0  0  0  0
 45 46  1  0  0  0  0
 45 47  1  0  0  0  0
 45 48  1  0  0  0  0
 48 49  1  0  0  0  0
 48 50  1  0  0  0  0
 48 51  1  0  0  0  0
 52 53  1  0  0  0  0
 52 54  1  0  0  0  0
 54 55  1  0  0  0  0
 54 56  2  0  0  0  0
 56 57  1  0  0  0  0
 57 58  1  0  0  0  0
 57 59  1  0  0  0  0
 57 60  1  0  0  0  0
M  END
> <EXP_BINDING_AFFINITY_IN_KCAL_PER_MOL>
-11.59

> <EXP_BINDING_AFFINITY_IN_KCAL_PER_MOL_STDERR>
0.1

$$$$
438_Nuv0098
  -OEChem-05082202433D
ITL:438_Nuv0098
 58 62  0     0  0  0  0  0  0999 V2000
   16.5188    3.4266   -9.6548 H   0  0  0  0  0  0  0  0  0  0  0  0
   15.5578    3.9207   -9.5151 C   0  0  0  0  0  0  0  0  0  0  0  0
   15.4462    4.1099   -8.4484 H   0  0  0  0  0  0  0  0  0  0  0  0
   15.6114    4.8817  -10.0252 H   0  0  0  0  0  0  0  0  0  0  0  0
   14.3911    3.0580  -10.0203 C   0  0  0  0  0  0  0  0  0  0  0  0
   14.6044    2.7227  -11.5064 C   0  0  0  0  0  0  0  0  0  0  0  0
   13.7859    2.1217  -11.9024 H   0  0  0  0  0  0  0  0  0  0  0  0
   14.6690    3.6325  -12.1084 H   0  0  0  0  0  0  0  0  0  0  0  0
   15.5335    2.1687  -11.6593 H   0  0  0  0  0  0  0  0  0  0  0  0
   14.2994    1.7598   -9.2030 C   0  0  0  0  0  0  0  0  0  0  0  0
   13.4617    1.1426   -9.5223 H   0  0  0  0  0  0  0  0  0  0  0  0
   15.2050    1.1616   -9.3033 H   0  0  0  0  0  0  0  0  0  0  0  0
   14.1682    1.9738   -8.1429 H   0  0  0  0  0  0  0  0  0  0  0  0
   12.8017    4.0098   -9.8692 S   0  0  0  0  0  0  0  0  0  0  0  0
   12.9519    5.2829  -10.5940 O   0  0  0  0  0  0  0  0  0  0  0  0
   11.6992    3.1025  -10.2207 O   0  0  0  0  0  0  0  0  0  0  0  0
   12.6158    4.3985   -8.1310 C   0  0  0  0  0  0  0  0  0  0  0  0
   13.1455    5.6063   -7.6217 C   0  0  0  0  0  0  0  0  0  0  0  0
   13.6579    6.3010   -8.2822 H   0  0  0  0  0  0  0  0  0  0  0  0
   13.0036    5.9109   -6.2890 C   0  0  0  0  0  0  0  0  0  0  0  0
   13.3991    6.8364   -5.8791 H   0  0  0  0  0  0  0  0  0  0  0  0
   12.3374    5.0052   -5.4207 C   0  0  0  0  0  0  0  0  0  0  0  0
   11.8422    3.7964   -5.9779 N   0  0  0  0  0  0  0  0  0  0  0  0
   11.9793    3.5045   -7.3039 C   0  0  0  0  0  0  0  0  0  0  0  0
   11.5614    2.5669   -7.6582 H   0  0  0  0  0  0  0  0  0  0  0  0
   11.2603    3.1104   -4.9172 C   0  0  0  0  0  0  0  0  0  0  0  0
   11.3950    3.8910   -3.8024 C   0  0  0  0  0  0  0  0  0  0  0  0
   11.0639    3.7022   -2.7891 H   0  0  0  0  0  0  0  0  0  0  0  0
   12.0624    5.0672   -4.1172 N   0  0  0  0  0  0  0  0  0  0  0  0
   10.6334    1.8460   -4.9213 N   0  0  0  0  0  0  0  0  0  0  0  0
    9.6708    1.3820   -4.0455 C   0  0  0  0  0  0  0  0  0  0  0  0
    9.2789    1.9807   -3.2362 H   0  0  0  0  0  0  0  0  0  0  0  0
    9.3950    0.1048   -4.4361 C   0  0  0  0  0  0  0  0  0  0  0  0
   10.2542   -0.1603   -5.5352 C   0  0  0  0  0  0  0  0  0  0  0  0
   10.3721   -1.0652   -6.1140 H   0  0  0  0  0  0  0  0  0  0  0  0
   10.9760    0.9029   -5.8359 N   0  0  0  0  0  0  0  0  0  0  0  0
    8.4919   -0.8075   -3.8306 N   0  0  0  0  0  0  0  0  0  0  0  0
    8.9733   -2.1144   -3.6855 C   0  0  0  0  0  0  0  0  0  0  0  0
   10.0090   -2.2520   -3.9708 H   0  0  0  0  0  0  0  0  0  0  0  0
    8.2436   -3.0954   -3.1333 C   0  0  0  0  0  0  0  0  0  0  0  0
    6.8995   -2.7719   -2.6946 C   0  0  0  0  0  0  0  0  0  0  0  0
    6.2562   -3.5249   -2.2599 H   0  0  0  0  0  0  0  0  0  0  0  0
    6.4414   -1.5063   -2.7972 C   0  0  0  0  0  0  0  0  0  0  0  0
    5.4473   -1.2723   -2.4503 H   0  0  0  0  0  0  0  0  0  0  0  0
    7.2521   -0.4325   -3.3916 C   0  0  0  0  0  0  0  0  0  0  0  0
    6.8263    0.7170   -3.5114 O   0  0  0  0  0  0  0  0  0  0  0  0
    8.9161   -4.3393   -2.7877 C   0  0  0  0  0  0  0  0  0  0  0  0
   10.1348   -4.4193   -2.6182 O   0  0  0  0  0  0  0  0  0  0  0  0
    8.0965   -5.3831   -2.5742 N   0  0  0  0  0  0  0  0  0  0  0  0
    7.1113   -5.2943   -2.7882 H   0  0  0  0  0  0  0  0  0  0  0  0
    8.5293   -6.6106   -1.9890 C   0  0  0  0  0  0  0  0  0  0  0  0
    9.5492   -6.6427   -1.6046 H   0  0  0  0  0  0  0  0  0  0  0  0
    7.5379   -7.4168   -1.1925 C   0  0  0  0  0  0  0  0  0  0  0  0
    7.9085   -7.9535   -0.3212 H   0  0  0  0  0  0  0  0  0  0  0  0
    6.5458   -6.9884   -1.0838 H   0  0  0  0  0  0  0  0  0  0  0  0
    8.0082   -7.9065   -2.5442 C   0  0  0  0  0  0  0  0  0  0  0  0
    7.3495   -7.8318   -3.4096 H   0  0  0  0  0  0  0  0  0  0  0  0
    8.6948   -8.7509   -2.5623 H   0  0  0  0  0  0  0  0  0  0  0  0
  1  2  1  0  0  0  0
  2  3  1  0  0  0  0
  2  4  1  0  0  0  0
  2  5  1  0  0  0  0
  5  6  1  0  0  0  0
  5 10  1  0  0  0  0
  5 14  1  0  0  0  0
  6  7  1  0  0  0  0
  6  8  1  0  0  0  0
  6  9  1  0  0  0  0
 10 11  1  0  0  0  0
 10 12  1  0  0  0  0
 10 13  1  0  0  0  0
 14 15  2  0  0  0  0
 14 16  2  0  0  0  0
 14 17  1  0  0  0  0
 17 18  1  0  0  0  0
 17 24  2  0  0  0  0
 18 19  1  0  0  0  0
 18 20  2  0  0  0  0
 20 21  1  0  0  0  0
 20 22  1  0  0  0  0
 22 23  1  0  0  0  0
 22 29  2  0  0  0  0
 23 24  1  0  0  0  0
 23 26  1  0  0  0  0
 24 25  1  0  0  0  0
 26 27  2  0  0  0  0
 26 30  1  0  0  0  0
 27 28  1  0  0  0  0
 27 29  1  0  0  0  0
 30 31  1  0  0  0  0
 30 36  1  0  0  0  0
 31 32  1  0  0  0  0
 31 33  2  0  0  0  0
 33 34  1  0  0  0  0
 33 37  1  0  0  0  0
 34 35  1  0  0  0  0
 34 36  2  0  0  0  0
 37 38  1  0  0  0  0
 37 45  1  0  0  0  0
 38 39  1  0  0  0  0
 38 40  2  0  0  0  0
 40 41  1  0  0  0  0
 40 47  1  0  0  0  0
 41 42  1  0  0  0  0
 41 43  2  0  0  0  0
 43 44  1  0  0  0  0
 43 45  1  0  0  0  0
 45 46  2  0  0  0  0
 47 48  2  0  0  0  0
 47 49  1  0  0  0  0
 49 50  1  0  0  0  0
 49 51  1  0  0  0  0
 51 52  1  0  0  0  0
 51 53  1  0  0  0  0
 51 56  1  0  0  0  0
 53 54  1  0  0  0  0
 53 55  1  0  0  0  0
 53 56  1  0  0  0  0
 56 57  1  0  0  0  0
 56 58  1  0  0  0  0
M  END
> <EXP_BINDING_AFFINITY_IN_KCAL_PER_MOL>
-6.42

> <EXP_BINDING_AFFINITY_IN_KCAL_PER_MOL_STDERR>
0.1

$$$$
3206_Nuv0277
  -OEChem-05082202433D
ITL:3206_Nuv0277
 64 68  0     0  0  0  0  0  0999 V2000
   11.5361    2.5995   -7.6728 H   0  0  0  0  0  0  0  0  0  0  0  0
   11.9633    3.5289   -7.3112 C   0  0  0  0  0  0  0  0  0  0  0  0
   12.6176    4.4125   -8.1343 C   0  0  0  0  0  0  0  0  0  0  0  0
   12.8065    4.0176   -9.8715 S   0  0  0  0  0  0  0  0  0  0  0  0
   11.6996    3.1173  -10.2255 O   0  0  0  0  0  0  0  0  0  0  0  0
   12.9648    5.2902  -10.5932 O   0  0  0  0  0  0  0  0  0  0  0  0
   14.3913    3.0566  -10.0192 C   0  0  0  0  0  0  0  0  0  0  0  0
   14.2935    1.7644   -9.1871 C   0  0  0  0  0  0  0  0  0  0  0  0
   15.1951    1.1590   -9.2811 H   0  0  0  0  0  0  0  0  0  0  0  0
   13.4479    1.1470   -9.4983 H   0  0  0  0  0  0  0  0  0  0  0  0
   14.1739    1.9837   -8.1251 H   0  0  0  0  0  0  0  0  0  0  0  0
   15.5555    3.9233   -9.5147 C   0  0  0  0  0  0  0  0  0  0  0  0
   15.6296    4.8634  -10.0660 H   0  0  0  0  0  0  0  0  0  0  0  0
   15.4107    4.1618   -8.4618 H   0  0  0  0  0  0  0  0  0  0  0  0
   16.5169    3.4169   -9.5914 H   0  0  0  0  0  0  0  0  0  0  0  0
   14.6113    2.7155  -11.5044 C   0  0  0  0  0  0  0  0  0  0  0  0
   14.6704    3.6188  -12.1144 H   0  0  0  0  0  0  0  0  0  0  0  0
   15.5458    2.1713  -11.6491 H   0  0  0  0  0  0  0  0  0  0  0  0
   13.8062    2.1021  -11.9063 H   0  0  0  0  0  0  0  0  0  0  0  0
   13.1512    5.6162   -7.6241 C   0  0  0  0  0  0  0  0  0  0  0  0
   13.6706    6.3052   -8.2826 H   0  0  0  0  0  0  0  0  0  0  0  0
   13.0099    5.9175   -6.2896 C   0  0  0  0  0  0  0  0  0  0  0  0
   13.4229    6.8349   -5.8835 H   0  0  0  0  0  0  0  0  0  0  0  0
   12.3387    5.0176   -5.4204 C   0  0  0  0  0  0  0  0  0  0  0  0
   11.8310    3.8166   -5.9834 N   0  0  0  0  0  0  0  0  0  0  0  0
   11.2421    3.1308   -4.9277 C   0  0  0  0  0  0  0  0  0  0  0  0
   11.3903    3.9037   -3.8078 C   0  0  0  0  0  0  0  0  0  0  0  0
   11.0677    3.7081   -2.7941 H   0  0  0  0  0  0  0  0  0  0  0  0
   12.0691    5.0750   -4.1167 N   0  0  0  0  0  0  0  0  0  0  0  0
   10.6136    1.8659   -4.9428 N   0  0  0  0  0  0  0  0  0  0  0  0
    9.6965    1.3633   -4.0387 C   0  0  0  0  0  0  0  0  0  0  0  0
    9.3415    1.9262   -3.1892 H   0  0  0  0  0  0  0  0  0  0  0  0
    9.4262    0.0890   -4.4368 C   0  0  0  0  0  0  0  0  0  0  0  0
   10.2289   -0.1311   -5.5852 C   0  0  0  0  0  0  0  0  0  0  0  0
   10.3300   -1.0278   -6.1819 H   0  0  0  0  0  0  0  0  0  0  0  0
   10.9226    0.9529   -5.8935 N   0  0  0  0  0  0  0  0  0  0  0  0
    8.5691   -0.9071   -3.7798 C   0  0  0  0  0  0  0  0  0  0  0  0
    9.1153   -2.1886   -3.5524 C   0  0  0  0  0  0  0  0  0  0  0  0
   10.1307   -2.3979   -3.8585 H   0  0  0  0  0  0  0  0  0  0  0  0
    8.3913   -3.1893   -2.8804 C   0  0  0  0  0  0  0  0  0  0  0  0
    7.0562   -2.9233   -2.4886 C   0  0  0  0  0  0  0  0  0  0  0  0
    6.4789   -3.6525   -1.9319 H   0  0  0  0  0  0  0  0  0  0  0  0
    6.4908   -1.6556   -2.7237 C   0  0  0  0  0  0  0  0  0  0  0  0
    5.4860   -1.4501   -2.3833 H   0  0  0  0  0  0  0  0  0  0  0  0
    7.2465   -0.6406   -3.3462 C   0  0  0  0  0  0  0  0  0  0  0  0
    6.6127    0.7277   -3.5118 C   0  0  0  0  0  0  0  0  0  0  0  0
    5.5303    0.6885   -3.3816 H   0  0  0  0  0  0  0  0  0  0  0  0
    7.0142    1.4264   -2.7748 H   0  0  0  0  0  0  0  0  0  0  0  0
    6.8073    1.1271   -4.5091 H   0  0  0  0  0  0  0  0  0  0  0  0
    9.0893   -4.4773   -2.5120 C   0  0  0  0  0  0  0  0  0  0  0  0
   10.2235   -4.4535   -2.0597 O   0  0  0  0  0  0  0  0  0  0  0  0
    8.4285   -5.6212   -2.7130 N   0  0  0  0  0  0  0  0  0  0  0  0
    7.3374   -5.5828   -3.5958 C   0  0  0  0  0  0  0  0  0  0  0  0
    6.5374   -5.6981   -2.8508 H   0  0  0  0  0  0  0  0  0  0  0  0
    7.1565   -4.7146   -4.2301 H   0  0  0  0  0  0  0  0  0  0  0  0
    7.3872   -6.3493   -4.3640 H   0  0  0  0  0  0  0  0  0  0  0  0
    8.9797   -6.9327   -2.5281 C   0  0  0  0  0  0  0  0  0  0  0  0
   10.0664   -6.9922   -2.4873 H   0  0  0  0  0  0  0  0  0  0  0  0
    8.2494   -7.9344   -1.6636 C   0  0  0  0  0  0  0  0  0  0  0  0
    8.8569   -8.5951   -1.0509 H   0  0  0  0  0  0  0  0  0  0  0  0
    7.3117   -7.6183   -1.2091 H   0  0  0  0  0  0  0  0  0  0  0  0
    8.2921   -8.1429   -3.1607 C   0  0  0  0  0  0  0  0  0  0  0  0
    7.3034   -8.1784   -3.5894 H   0  0  0  0  0  0  0  0  0  0  0  0
    8.9464   -8.9181   -3.5466 H   0  0  0  0  0  0  0  0  0  0  0  0
  1  2  1  0  0  0  0
  2  3  2  0  0  0  0
  2 25  1  0  0  0  0
  3  4  1  0  0  0  0
  3 20  1  0  0  0  0
  4  5  2  0  0  0  0
  4  6  2  0  0  0  0
  4  7  1  0  0  0  0
  7  8  1  0  0  0  0
  7 12  1  0  0  0  0
  7 16  1  0  0  0  0
  8  9  1  0  0  0  0
  8 10  1  0  0  0  0
  8 11  1  0  0  0  0
 12 13  1  0  0  0  0
 12 14  1  0  0  0  0
 12 15  1  0  0  0  0
 16 17  1  0  0  0  0
 16 18  1  0  0  0  0
 16 19  1  0  0  0  0
 20 21  1  0  0  0  0
 20 22  2  0  0  0  0
 22 23  1  0  0  0  0
 22 24  1  0  0  0  0
 24 25  1  0  0  0  0
 24 29  2  0  0  0  0
 25 26  1  0  0  0  0
 26 27  2  0  0  0  0
 26 30  1  0  0  0  0
 27 28  1  0  0  0  0
 27 29  1  0  0  0  0
 30 31  1  0  0  0  0
 30 36  1  0  0  0  0
 31 32  1  0  0  0  0
 31 33  2  0  0  0  0
 33 34  1  0  0  0  0
 33 37  1  0  0  0  0
 34 35  1  0  0  0  0
 34 36  2  0  0  0  0
 37 38  2  0  0  0  0
 37 45  1  0  0  0  0
 38 39  1  0  0  0  0
 38 40  1  0  0  0  0
 40 41  2  0  0  0  0
 40 50  1  0  0  0  0
 41 42  1  0  0  0  0
 41 43  1  0  0  0  0
 43 44  1  0  0  0  0
 43 45  2  0  0  0  0
 45 46  1  0  0  0  0
 46 47  1  0  0  0  0
 46 48  1  0  0  0  0
 46 49  1  0  0  0  0
 50 51  2  0  0  0  0
 50 52  1  0  0  0  0
 52 53  1  0  0  0  0
 52 57  1  0  0  0  0
 53 54  1  0  0  0  0
 53 55  1  0  0  0  0
 53 56  1  0  0  0  0
 57 58  1  0  0  0  0
 57 59  1  0  0  0  0
 57 62  1  0  0  0  0
 59 60  1  0  0  0  0
 59 61  1  0  0  0  0
 59 62  1  0  0  0  0
 62 63  1  0  0  0  0
 62 64  1  0  0  0  0
M  END
> <EXP_BINDING_AFFINITY_IN_KCAL_PER_MOL>
-9.00

> <EXP_BINDING_AFFINITY_IN_KCAL_PER_MOL_STDERR>
0.1

$$$$
487_Nuv0273
  -OEChem-05082202433D
ITL:487_Nuv0273
 55 60  0     0  0  0  0  0  0999 V2000
   12.5925    6.7874   -6.0877 H   0  0  0  0  0  0  0  0  0  0  0  0
   13.1288    5.8485   -6.1536 C   0  0  0  0  0  0  0  0  0  0  0  0
   14.0993    5.9803   -5.6809 H   0  0  0  0  0  0  0  0  0  0  0  0
   13.3378    5.4904   -7.6342 C   0  0  0  0  0  0  0  0  0  0  0  0
   13.7203    6.3842   -8.3892 O   0  0  0  0  0  0  0  0  0  0  0  0
   13.1538    4.2087   -8.0475 N   0  0  0  0  0  0  0  0  0  0  0  0
   13.4578    3.7765   -9.3854 C   0  0  0  0  0  0  0  0  0  0  0  0
   12.6284    3.8388  -10.0908 H   0  0  0  0  0  0  0  0  0  0  0  0
   14.8360    4.0220   -9.9759 C   0  0  0  0  0  0  0  0  0  0  0  0
   14.8977    4.2476  -11.0388 H   0  0  0  0  0  0  0  0  0  0  0  0
   15.5991    4.4990   -9.3612 H   0  0  0  0  0  0  0  0  0  0  0  0
   14.4220    2.6245   -9.5846 C   0  0  0  0  0  0  0  0  0  0  0  0
   14.9073    2.1930   -8.7099 H   0  0  0  0  0  0  0  0  0  0  0  0
   14.2093    1.9224  -10.3904 H   0  0  0  0  0  0  0  0  0  0  0  0
   12.3387    3.2299   -7.3037 C   0  0  0  0  0  0  0  0  0  0  0  0
   12.8885    2.2890   -7.2550 H   0  0  0  0  0  0  0  0  0  0  0  0
   11.4267    3.0293   -7.8672 H   0  0  0  0  0  0  0  0  0  0  0  0
   11.9750    3.6387   -5.9114 C   0  0  0  0  0  0  0  0  0  0  0  0
   11.2689    3.0766   -4.8876 C   0  0  0  0  0  0  0  0  0  0  0  0
   11.3380    3.9787   -3.7922 C   0  0  0  0  0  0  0  0  0  0  0  0
   10.9315    3.8903   -2.7892 H   0  0  0  0  0  0  0  0  0  0  0  0
   12.0047    5.0695   -4.1394 N   0  0  0  0  0  0  0  0  0  0  0  0
   12.3781    4.8539   -5.4260 N   0  0  0  0  0  0  0  0  0  0  0  0
   10.6358    1.8150   -4.9192 N   0  0  0  0  0  0  0  0  0  0  0  0
    9.6961    1.3248   -4.0316 C   0  0  0  0  0  0  0  0  0  0  0  0
    9.3423    1.8980   -3.1890 H   0  0  0  0  0  0  0  0  0  0  0  0
    9.4052    0.0568   -4.4411 C   0  0  0  0  0  0  0  0  0  0  0  0
   10.2083   -0.1597   -5.5930 C   0  0  0  0  0  0  0  0  0  0  0  0
   10.2940   -1.0442   -6.2079 H   0  0  0  0  0  0  0  0  0  0  0  0
   10.9317    0.9074   -5.8821 N   0  0  0  0  0  0  0  0  0  0  0  0
    8.5367   -0.9395   -3.7959 C   0  0  0  0  0  0  0  0  0  0  0  0
    7.2167   -0.6743   -3.3483 C   0  0  0  0  0  0  0  0  0  0  0  0
    6.5904    0.7036   -3.4939 C   0  0  0  0  0  0  0  0  0  0  0  0
    5.5165    0.6713   -3.3113 H   0  0  0  0  0  0  0  0  0  0  0  0
    7.0256    1.3948   -2.7719 H   0  0  0  0  0  0  0  0  0  0  0  0
    6.7477    1.1034   -4.4961 H   0  0  0  0  0  0  0  0  0  0  0  0
    6.4609   -1.7050   -2.7473 C   0  0  0  0  0  0  0  0  0  0  0  0
    5.4533   -1.5066   -2.4116 H   0  0  0  0  0  0  0  0  0  0  0  0
    7.0152   -2.9852   -2.5466 C   0  0  0  0  0  0  0  0  0  0  0  0
    6.4317   -3.7453   -2.0462 H   0  0  0  0  0  0  0  0  0  0  0  0
    8.3450   -3.2403   -2.9435 C   0  0  0  0  0  0  0  0  0  0  0  0
    9.0749   -2.2249   -3.5875 C   0  0  0  0  0  0  0  0  0  0  0  0
   10.0926   -2.4260   -3.8931 H   0  0  0  0  0  0  0  0  0  0  0  0
    9.0493   -4.5144   -2.5870 C   0  0  0  0  0  0  0  0  0  0  0  0
   10.2039   -4.4666   -2.1565 O   0  0  0  0  0  0  0  0  0  0  0  0
    8.3777   -5.6588   -2.7726 N   0  0  0  0  0  0  0  0  0  0  0  0
    7.4351   -5.6205   -3.1399 H   0  0  0  0  0  0  0  0  0  0  0  0
    8.9496   -6.9502   -2.5604 C   0  0  0  0  0  0  0  0  0  0  0  0
   10.0356   -7.0059   -2.5223 H   0  0  0  0  0  0  0  0  0  0  0  0
    8.2108   -7.9464   -1.6958 C   0  0  0  0  0  0  0  0  0  0  0  0
    7.2851   -7.6144   -1.2298 H   0  0  0  0  0  0  0  0  0  0  0  0
    8.8086   -8.6288   -1.0955 H   0  0  0  0  0  0  0  0  0  0  0  0
    8.2524   -8.1316   -3.1914 C   0  0  0  0  0  0  0  0  0  0  0  0
    8.8856   -8.9215   -3.5876 H   0  0  0  0  0  0  0  0  0  0  0  0
    7.3395   -7.9489   -3.7540 H   0  0  0  0  0  0  0  0  0  0  0  0
  1  2  1  0  0  0  0
  2  3  1  0  0  0  0
  2  4  1  0  0  0  0
  2 23  1  0  0  0  0
  4  5  2  0  0  0  0
  4  6  1  0  0  0  0
  6  7  1  0  0  0  0
  6 15  1  0  0  0  0
  7  8  1  0  0  0  0
  7  9  1  0  0  0  0
  7 12  1  0  0  0  0
  9 10  1  0  0  0  0
  9 11  1  0  0  0  0
  9 12  1  0  0  0  0
 12 13  1  0  0  0  0
 12 14  1  0  0  0  0
 15 16  1  0  0  0  0
 15 17  1  0  0  0  0
 15 18  1  0  0  0  0
 18 19  2  0  0  0  0
 18 23  1  0  0  0  0
 19 20  1  0  0  0  0
 19 24  1  0  0  0  0
 20 21  1  0  0  0  0
 20 22  2  0  0  0  0
 22 23  1  0  0  0  0
 24 25  1  0  0  0  0
 24 30  1  0  0  0  0
 25 26  1  0  0  0  0
 25 27  2  0  0  0  0
 27 28  1  0  0  0  0
 27 31  1  0  0  0  0
 28 29  1  0  0  0  0
 28 30  2  0  0  0  0
 31 32  2  0  0  0  0
 31 42  1  0  0  0  0
 32 33  1  0  0  0  0
 32 37  1  0  0  0  0
 33 34  1  0  0  0  0
 33 35  1  0  0  0  0
 33 36  1  0  0  0  0
 37 38  1  0  0  0  0
 37 39  2  0  0  0  0
 39 40  1  0  0  0  0
 39 41  1  0  0  0  0
 41 42  2  0  0  0  0
 41 44  1  0  0  0  0
 42 43  1  0  0  0  0
 44 45  2  0  0  0  0
 44 46  1  0  0  0  0
 46 47  1  0  0  0  0
 46 48  1  0  0  0  0
 48 49  1  0  0  0  0
 48 50  1  0  0  0  0
 48 53  1  0  0  0  0
 50 51  1  0  0  0  0
 50 52  1  0  0  0  0
 50 53  1  0  0  0  0
 53 54  1  0  0  0  0
 53 55  1  0  0  0  0
M  END
> <EXP_BINDING_AFFINITY_IN_KCAL_PER_MOL>
-10.93

> <EXP_BINDING_AFFINITY_IN_KCAL_PER_MOL_STDERR>
0.1

$$$$
490_Nuv0671
  -OEChem-05082202433D
ITL:490_Nuv0671
 48 52  0     0  0  0  0  0  0999 V2000
   12.5734    6.8171   -6.1133 H   0  0  0  0  0  0  0  0  0  0  0  0
   13.1030    5.8723   -6.1848 C   0  0  0  0  0  0  0  0  0  0  0  0
   14.0748    5.9807   -5.7114 H   0  0  0  0  0  0  0  0  0  0  0  0
   13.3060    5.5280   -7.6675 C   0  0  0  0  0  0  0  0  0  0  0  0
   13.8703    6.3372   -8.3958 O   0  0  0  0  0  0  0  0  0  0  0  0
   12.8650    4.3505   -8.1390 N   0  0  0  0  0  0  0  0  0  0  0  0
   13.0443    4.1640   -9.1134 H   0  0  0  0  0  0  0  0  0  0  0  0
   12.1633    3.3123   -7.3804 C   0  0  0  0  0  0  0  0  0  0  0  0
   12.7525    2.3961   -7.4270 H   0  0  0  0  0  0  0  0  0  0  0  0
   11.2163    3.1097   -7.8828 H   0  0  0  0  0  0  0  0  0  0  0  0
   11.9043    3.6739   -5.9514 C   0  0  0  0  0  0  0  0  0  0  0  0
   11.2629    3.0829   -4.9011 C   0  0  0  0  0  0  0  0  0  0  0  0
   11.3734    3.9731   -3.8004 C   0  0  0  0  0  0  0  0  0  0  0  0
   11.0084    3.8752   -2.7876 H   0  0  0  0  0  0  0  0  0  0  0  0
   12.0429    5.0626   -4.1508 N   0  0  0  0  0  0  0  0  0  0  0  0
   12.3566    4.8730   -5.4562 N   0  0  0  0  0  0  0  0  0  0  0  0
   10.6325    1.8206   -4.9231 N   0  0  0  0  0  0  0  0  0  0  0  0
    9.6915    1.3350   -4.0347 C   0  0  0  0  0  0  0  0  0  0  0  0
    9.3349    1.9090   -3.1934 H   0  0  0  0  0  0  0  0  0  0  0  0
    9.4049    0.0642   -4.4415 C   0  0  0  0  0  0  0  0  0  0  0  0
   10.2137   -0.1568   -5.5896 C   0  0  0  0  0  0  0  0  0  0  0  0
   10.3067   -1.0442   -6.1987 H   0  0  0  0  0  0  0  0  0  0  0  0
   10.9370    0.9104   -5.8819 N   0  0  0  0  0  0  0  0  0  0  0  0
    8.5384   -0.9334   -3.7923 C   0  0  0  0  0  0  0  0  0  0  0  0
    7.2182   -0.6711   -3.3413 C   0  0  0  0  0  0  0  0  0  0  0  0
    6.5903    0.7072   -3.4847 C   0  0  0  0  0  0  0  0  0  0  0  0
    5.5103    0.6629   -3.3511 H   0  0  0  0  0  0  0  0  0  0  0  0
    6.9889    1.3855   -2.7302 H   0  0  0  0  0  0  0  0  0  0  0  0
    6.7874    1.1307   -4.4708 H   0  0  0  0  0  0  0  0  0  0  0  0
    6.4608   -1.7045   -2.7469 C   0  0  0  0  0  0  0  0  0  0  0  0
    5.4540   -1.5069   -2.4095 H   0  0  0  0  0  0  0  0  0  0  0  0
    7.0168   -2.9813   -2.5453 C   0  0  0  0  0  0  0  0  0  0  0  0
    6.4342   -3.7440   -2.0461 H   0  0  0  0  0  0  0  0  0  0  0  0
    8.3461   -3.2297   -2.9381 C   0  0  0  0  0  0  0  0  0  0  0  0
    9.0749   -2.2192   -3.5906 C   0  0  0  0  0  0  0  0  0  0  0  0
   10.0895   -2.4261   -3.9090 H   0  0  0  0  0  0  0  0  0  0  0  0
    9.0498   -4.5010   -2.5741 C   0  0  0  0  0  0  0  0  0  0  0  0
   10.2093   -4.4557   -2.1528 O   0  0  0  0  0  0  0  0  0  0  0  0
    8.3707   -5.6453   -2.7476 N   0  0  0  0  0  0  0  0  0  0  0  0
    7.4235   -5.6077   -3.1020 H   0  0  0  0  0  0  0  0  0  0  0  0
    8.9374   -6.9391   -2.5290 C   0  0  0  0  0  0  0  0  0  0  0  0
   10.0228   -7.0031   -2.4720 H   0  0  0  0  0  0  0  0  0  0  0  0
    8.1859   -7.9306   -1.6736 C   0  0  0  0  0  0  0  0  0  0  0  0
    7.2567   -7.6013   -1.2163 H   0  0  0  0  0  0  0  0  0  0  0  0
    8.7777   -8.6105   -1.0654 H   0  0  0  0  0  0  0  0  0  0  0  0
    8.2432   -8.1167   -3.1699 C   0  0  0  0  0  0  0  0  0  0  0  0
    8.8700   -8.9140   -3.5598 H   0  0  0  0  0  0  0  0  0  0  0  0
    7.3376   -7.9309   -3.7395 H   0  0  0  0  0  0  0  0  0  0  0  0
  1  2  1  0  0  0  0
  2  3  1  0  0  0  0
  2  4  1  0  0  0  0
  2 16  1  0  0  0  0
  4  5  2  0  0  0  0
  4  6  1  0  0  0  0
  6  7  1  0  0  0  0
  6  8  1  0  0  0  0
  8  9  1  0  0  0  0
  8 10  1  0  0  0  0
  8 11  1  0  0  0  0
 11 12  2  0  0  0  0
 11 16  1  0  0  0  0
 12 13  1  0  0  0  0
 12 17  1  0  0  0  0
 13 14  1  0  0  0  0
 13 15  2  0  0  0  0
 15 16  1  0  0  0  0
 17 18  1  0  0  0  0
 17 23  1  0  0  0  0
 18 19  1  0  0  0  0
 18 20  2  0  0  0  0
 20 21  1  0  0  0  0
 20 24  1  0  0  0  0
 21 22  1  0  0  0  0
 21 23  2  0  0  0  0
 24 25  2  0  0  0  0
 24 35  1  0  0  0  0
 25 26  1  0  0  0  0
 25 30  1  0  0  0  0
 26 27  1  0  0  0  0
 26 28  1  0  0  0  0
 26 29  1  0  0  0  0
 30 31  1  0  0  0  0
 30 32  2  0  0  0  0
 32 33  1  0  0  0  0
 32 34  1  0  0  0  0
 34 35  2  0  0  0  0
 34 37  1  0  0  0  0
 35 36  1  0  0  0  0
 37 38  2  0  0  0  0
 37 39  1  0  0  0  0
 39 40  1  0  0  0  0
 39 41  1  0  0  0  0
 41 42  1  0  0  0  0
 41 43  1  0  0  0  0
 41 46  1  0  0  0  0
 43 44  1  0  0  0  0
 43 45  1  0  0  0  0
 43 46  1  0  0  0  0
 46 47  1  0  0  0  0
 46 48  1  0  0  0  0
M  END
> <EXP_BINDING_AFFINITY_IN_KCAL_PER_MOL>
-11.26

> <EXP_BINDING_AFFINITY_IN_KCAL_PER_MOL_STDERR>
0.1

$$$$
0001_Nuv0252
  -OEChem-05082202433D
ITL:0001_Nuv0252
 52 55  0     0  0  0  0  0  0999 V2000
   11.5803    2.5662   -7.6482 H   0  0  0  0  0  0  0  0  0  0  0  0
   11.9909    3.5033   -7.2900 C   0  0  0  0  0  0  0  0  0  0  0  0
   12.6286    4.3964   -8.1179 C   0  0  0  0  0  0  0  0  0  0  0  0
   12.8035    4.0007   -9.8561 S   0  0  0  0  0  0  0  0  0  0  0  0
   11.7004    3.0897  -10.1964 O   0  0  0  0  0  0  0  0  0  0  0  0
   12.9431    5.2721  -10.5824 O   0  0  0  0  0  0  0  0  0  0  0  0
   14.3932    3.0558  -10.0145 C   0  0  0  0  0  0  0  0  0  0  0  0
   14.3150    1.7622   -9.1807 C   0  0  0  0  0  0  0  0  0  0  0  0
   15.2348    1.1797   -9.2614 H   0  0  0  0  0  0  0  0  0  0  0  0
   13.4938    1.1226   -9.5098 H   0  0  0  0  0  0  0  0  0  0  0  0
   14.1615    1.9774   -8.1251 H   0  0  0  0  0  0  0  0  0  0  0  0
   15.5610    3.9300   -9.5411 C   0  0  0  0  0  0  0  0  0  0  0  0
   15.6714    4.8231  -10.1575 H   0  0  0  0  0  0  0  0  0  0  0  0
   15.4126    4.2537   -8.5115 H   0  0  0  0  0  0  0  0  0  0  0  0
   16.5057    3.3887   -9.5883 H   0  0  0  0  0  0  0  0  0  0  0  0
   14.5942    2.7039  -11.4986 C   0  0  0  0  0  0  0  0  0  0  0  0
   14.6985    3.6023  -12.1087 H   0  0  0  0  0  0  0  0  0  0  0  0
   15.4932    2.1025  -11.6435 H   0  0  0  0  0  0  0  0  0  0  0  0
   13.7483    2.1377  -11.8927 H   0  0  0  0  0  0  0  0  0  0  0  0
   13.1638    5.6019   -7.6116 C   0  0  0  0  0  0  0  0  0  0  0  0
   13.6828    6.2924   -8.2710 H   0  0  0  0  0  0  0  0  0  0  0  0
   13.0240    5.9055   -6.2783 C   0  0  0  0  0  0  0  0  0  0  0  0
   13.4263    6.8283   -5.8717 H   0  0  0  0  0  0  0  0  0  0  0  0
   12.3534    5.0027   -5.4085 C   0  0  0  0  0  0  0  0  0  0  0  0
   11.8512    3.7966   -5.9657 N   0  0  0  0  0  0  0  0  0  0  0  0
   11.2612    3.1154   -4.9085 C   0  0  0  0  0  0  0  0  0  0  0  0
   11.4010    3.8972   -3.7946 C   0  0  0  0  0  0  0  0  0  0  0  0
   11.0749    3.7072   -2.7820 H   0  0  0  0  0  0  0  0  0  0  0  0
   12.0749    5.0693   -4.1070 N   0  0  0  0  0  0  0  0  0  0  0  0
   10.6340    1.8461   -4.9175 N   0  0  0  0  0  0  0  0  0  0  0  0
    9.6980    1.3517   -4.0259 C   0  0  0  0  0  0  0  0  0  0  0  0
    9.3301    1.9261   -3.1883 H   0  0  0  0  0  0  0  0  0  0  0  0
    9.4234    0.0740   -4.4212 C   0  0  0  0  0  0  0  0  0  0  0  0
   10.2333   -0.1456   -5.5672 C   0  0  0  0  0  0  0  0  0  0  0  0
   10.3305   -1.0359   -6.1712 H   0  0  0  0  0  0  0  0  0  0  0  0
   10.9515    0.9261   -5.8611 N   0  0  0  0  0  0  0  0  0  0  0  0
    8.5534   -0.9244   -3.7733 C   0  0  0  0  0  0  0  0  0  0  0  0
    9.0886   -2.2105   -3.5573 C   0  0  0  0  0  0  0  0  0  0  0  0
   10.0968   -2.4270   -3.8750 H   0  0  0  0  0  0  0  0  0  0  0  0
    8.3595   -3.2218   -2.9036 C   0  0  0  0  0  0  0  0  0  0  0  0
    7.0187   -2.9721   -2.5451 C   0  0  0  0  0  0  0  0  0  0  0  0
    6.4294   -3.7474   -2.0737 H   0  0  0  0  0  0  0  0  0  0  0  0
    6.4666   -1.6916   -2.7506 C   0  0  0  0  0  0  0  0  0  0  0  0
    5.4481   -1.5023   -2.4431 H   0  0  0  0  0  0  0  0  0  0  0  0
    7.2305   -0.6571   -3.3361 C   0  0  0  0  0  0  0  0  0  0  0  0
    6.6011    0.7194   -3.4972 C   0  0  0  0  0  0  0  0  0  0  0  0
    5.5168    0.6734   -3.3851 H   0  0  0  0  0  0  0  0  0  0  0  0
    6.9879    1.4021   -2.7379 H   0  0  0  0  0  0  0  0  0  0  0  0
    6.8179    1.1330   -4.4830 H   0  0  0  0  0  0  0  0  0  0  0  0
    9.0357   -4.5163   -2.5484 C   0  0  0  0  0  0  0  0  0  0  0  0
   10.2216   -4.4652   -2.1506 O   0  0  0  0  0  0  0  0  0  0  0  0
    8.3905   -5.5843   -2.6280 O   0  5  0  0  0  0  0  0  0  0  0  0
  1  2  1  0  0  0  0
  2  3  2  0  0  0  0
  2 25  1  0  0  0  0
  3  4  1  0  0  0  0
  3 20  1  0  0  0  0
  4  5  2  0  0  0  0
  4  6  2  0  0  0  0
  4  7  1  0  0  0  0
  7  8  1  0  0  0  0
  7 12  1  0  0  0  0
  7 16  1  0  0  0  0
  8  9  1  0  0  0  0
  8 10  1  0  0  0  0
  8 11  1  0  0  0  0
 12 13  1  0  0  0  0
 12 14  1  0  0  0  0
 12 15  1  0  0  0  0
 16 17  1  0  0  0  0
 16 18  1  0  0  0  0
 16 19  1  0  0  0  0
 20 21  1  0  0  0  0
 20 22  2  0  0  0  0
 22 23  1  0  0  0  0
 22 24  1  0  0  0  0
 24 25  1  0  0  0  0
 24 29  2  0  0  0  0
 25 26  1  0  0  0  0
 26 27  2  0  0  0  0
 26 30  1  0  0  0  0
 27 28  1  0  0  0  0
 27 29  1  0  0  0  0
 30 31  1  0  0  0  0
 30 36  1  0  0  0  0
 31 32  1  0  0  0  0
 31 33  2  0  0  0  0
 33 34  1  0  0  0  0
 33 37  1  0  0  0  0
 34 35  1  0  0  0  0
 34 36  2  0  0  0  0
 37 38  2  0  0  0  0
 37 45  1  0  0  0  0
 38 39  1  0  0  0  0
 38 40  1  0  0  0  0
 40 41  2  0  0  0  0
 40 50  1  0  0  0  0
 41 42  1  0  0  0  0
 41 43  1  0  0  0  0
 43 44  1  0  0  0  0
 43 45  2  0  0  0  0
 45 46  1  0  0  0  0
 46 47  1  0  0  0  0
 46 48  1  0  0  0  0
 46 49  1  0  0  0  0
 50 51  2  0  0  0  0
 50 52  1  0  0  0  0
M  CHG  1  52  -1
M  END
> <EXP_BINDING_AFFINITY_IN_KCAL_PER_MOL>
-7.87

> <EXP_BINDING_AFFINITY_IN_KCAL_PER_MOL_STDERR>
0.1

$$$$
3260_Nu0101c1
  -OEChem-05082202433D
ITL:3260_Nuv0101_conf1
 60 63  0     0  0  0  0  0  0999 V2000
   11.5636    2.5889   -7.6659 H   0  0  0  0  0  0  0  0  0  0  0  0
   11.9824    3.5229   -7.3077 C   0  0  0  0  0  0  0  0  0  0  0  0
   12.6318    4.4079   -8.1342 C   0  0  0  0  0  0  0  0  0  0  0  0
   12.8140    4.0070   -9.8716 S   0  0  0  0  0  0  0  0  0  0  0  0
   12.9640    5.2781  -10.6006 O   0  0  0  0  0  0  0  0  0  0  0  0
   11.7115    3.1031  -10.2215 O   0  0  0  0  0  0  0  0  0  0  0  0
   14.4015    3.0510  -10.0205 C   0  0  0  0  0  0  0  0  0  0  0  0
   14.6039    2.6913  -11.5021 C   0  0  0  0  0  0  0  0  0  0  0  0
   15.5274    2.1302  -11.6536 H   0  0  0  0  0  0  0  0  0  0  0  0
   14.6595    3.5862  -12.1228 H   0  0  0  0  0  0  0  0  0  0  0  0
   13.7806    2.0834  -11.8780 H   0  0  0  0  0  0  0  0  0  0  0  0
   15.5691    3.9246   -9.5377 C   0  0  0  0  0  0  0  0  0  0  0  0
   15.6675    4.8298  -10.1392 H   0  0  0  0  0  0  0  0  0  0  0  0
   15.4228    4.2210   -8.5049 H   0  0  0  0  0  0  0  0  0  0  0  0
   16.5207    3.3947   -9.5880 H   0  0  0  0  0  0  0  0  0  0  0  0
   14.3153    1.7615   -9.1835 C   0  0  0  0  0  0  0  0  0  0  0  0
   13.4989    1.1208   -9.5172 H   0  0  0  0  0  0  0  0  0  0  0  0
   15.2361    1.1813   -9.2561 H   0  0  0  0  0  0  0  0  0  0  0  0
   14.1529    1.9814   -8.1296 H   0  0  0  0  0  0  0  0  0  0  0  0
   13.1664    5.6134   -7.6240 C   0  0  0  0  0  0  0  0  0  0  0  0
   13.6859    6.3021   -8.2834 H   0  0  0  0  0  0  0  0  0  0  0  0
   13.0272    5.9164   -6.2904 C   0  0  0  0  0  0  0  0  0  0  0  0
   13.4329    6.8362   -5.8817 H   0  0  0  0  0  0  0  0  0  0  0  0
   12.3561    5.0146   -5.4186 C   0  0  0  0  0  0  0  0  0  0  0  0
   11.8511    3.8112   -5.9814 N   0  0  0  0  0  0  0  0  0  0  0  0
   11.2649    3.1280   -4.9215 C   0  0  0  0  0  0  0  0  0  0  0  0
   11.4088    3.9016   -3.8049 C   0  0  0  0  0  0  0  0  0  0  0  0
   11.0859    3.7061   -2.7910 H   0  0  0  0  0  0  0  0  0  0  0  0
   12.0885    5.0731   -4.1165 N   0  0  0  0  0  0  0  0  0  0  0  0
   10.6349    1.8625   -4.9375 N   0  0  0  0  0  0  0  0  0  0  0  0
    9.7092    1.3618   -4.0399 C   0  0  0  0  0  0  0  0  0  0  0  0
    9.3478    1.9310   -3.1974 H   0  0  0  0  0  0  0  0  0  0  0  0
    9.4314    0.0905   -4.4523 C   0  0  0  0  0  0  0  0  0  0  0  0
   10.2411   -0.1256   -5.5959 C   0  0  0  0  0  0  0  0  0  0  0  0
   10.3422   -1.0114   -6.2057 H   0  0  0  0  0  0  0  0  0  0  0  0
   10.9496    0.9502   -5.8862 N   0  0  0  0  0  0  0  0  0  0  0  0
    8.5604   -0.9148   -3.8097 C   0  0  0  0  0  0  0  0  0  0  0  0
    9.1113   -2.1934   -3.5882 C   0  0  0  0  0  0  0  0  0  0  0  0
   10.1185   -2.4040   -3.9027 H   0  0  0  0  0  0  0  0  0  0  0  0
    8.3841   -3.1932   -2.9007 C   0  0  0  0  0  0  0  0  0  0  0  0
    7.0516   -2.9284   -2.5168 C   0  0  0  0  0  0  0  0  0  0  0  0
    6.5170   -3.5558   -1.8054 H   0  0  0  0  0  0  0  0  0  0  0  0
    6.5001   -1.6481   -2.7189 C   0  0  0  0  0  0  0  0  0  0  0  0
    5.5170   -1.4292   -2.3560 H   0  0  0  0  0  0  0  0  0  0  0  0
    7.2462   -0.6399   -3.3596 C   0  0  0  0  0  0  0  0  0  0  0  0
    6.6162    0.7433   -3.5046 C   0  0  0  0  0  0  0  0  0  0  0  0
    5.5336    0.7002   -3.3807 H   0  0  0  0  0  0  0  0  0  0  0  0
    7.0130    1.4282   -2.7478 H   0  0  0  0  0  0  0  0  0  0  0  0
    6.8153    1.1692   -4.4915 H   0  0  0  0  0  0  0  0  0  0  0  0
    9.0689   -4.4810   -2.5375 C   0  0  0  0  0  0  0  0  0  0  0  0
   10.2225   -4.4858   -2.1520 O   0  0  0  0  0  0  0  0  0  0  0  0
    8.3940   -5.6322   -2.6952 N   0  0  0  0  0  0  0  0  0  0  0  0
    8.9967   -6.9366   -2.5010 C   0  0  0  0  0  0  0  0  0  0  0  0
   10.0731   -6.9220   -2.6334 H   0  0  0  0  0  0  0  0  0  0  0  0
    8.8097   -7.2936   -1.4834 H   0  0  0  0  0  0  0  0  0  0  0  0
    8.6027   -7.6804   -3.2090 H   0  0  0  0  0  0  0  0  0  0  0  0
    7.0929   -5.6864   -3.1862 C   0  0  0  0  0  0  0  0  0  0  0  0
    6.3068   -5.0071   -2.9306 H   0  0  0  0  0  0  0  0  0  0  0  0
    7.3379   -5.6414   -4.2616 H   0  0  0  0  0  0  0  0  0  0  0  0
    6.6726   -6.6057   -2.7863 H   0  0  0  0  0  0  0  0  0  0  0  0
  1  2  1  0  0  0  0
  2  3  2  0  0  0  0
  2 25  1  0  0  0  0
  3  4  1  0  0  0  0
  3 20  1  0  0  0  0
  4  5  2  0  0  0  0
  4  6  2  0  0  0  0
  4  7  1  0  0  0  0
  7  8  1  0  0  0  0
  7 12  1  0  0  0  0
  7 16  1  0  0  0  0
  8  9  1  0  0  0  0
  8 10  1  0  0  0  0
  8 11  1  0  0  0  0
 12 13  1  0  0  0  0
 12 14  1  0  0  0  0
 12 15  1  0  0  0  0
 16 17  1  0  0  0  0
 16 18  1  0  0  0  0
 16 19  1  0  0  0  0
 20 21  1  0  0  0  0
 20 22  2  0  0  0  0
 22 23  1  0  0  0  0
 22 24  1  0  0  0  0
 24 25  1  0  0  0  0
 24 29  2  0  0  0  0
 25 26  1  0  0  0  0
 26 27  2  0  0  0  0
 26 30  1  0  0  0  0
 27 28  1  0  0  0  0
 27 29  1  0  0  0  0
 30 31  1  0  0  0  0
 30 36  1  0  0  0  0
 31 32  1  0  0  0  0
 31 33  2  0  0  0  0
 33 34  1  0  0  0  0
 33 37  1  0  0  0  0
 34 35  1  0  0  0  0
 34 36  2  0  0  0  0
 37 38  2  0  0  0  0
 37 45  1  0  0  0  0
 38 39  1  0  0  0  0
 38 40  1  0  0  0  0
 40 41  2  0  0  0  0
 40 50  1  0  0  0  0
 41 42  1  0  0  0  0
 41 43  1  0  0  0  0
 43 44  1  0  0  0  0
 43 45  2  0  0  0  0
 45 46  1  0  0  0  0
 46 47  1  0  0  0  0
 46 48  1  0  0  0  0
 46 49  1  0  0  0  0
 50 51  2  0  0  0  0
 50 52  1  0  0  0  0
 52 53  1  0  0  0  0
 52 57  1  0  0  0  0
 53 54  1  0  0  0  0
 53 55  1  0  0  0  0
 53 56  1  0  0  0  0
 57 58  1  0  0  0  0
 57 59  1  0  0  0  0
 57 60  1  0  0  0  0
M  END
> <EXP_BINDING_AFFINITY_IN_KCAL_PER_MOL>
-9.21

> <EXP_BINDING_AFFINITY_IN_KCAL_PER_MOL_STDERR>
0.1

$$$$
